  
       XFOIL         Version 6.99
  
 Calculated polar for: NACA 4334                                       
  
 1 1 Reynolds number fixed          Mach number fixed         
  
 xtrf =   1.000 (top)        1.000 (bottom)  
 Mach =   0.050     Re =     0.200 e 6     Ncrit =   9.000
  
   alpha    CL        CD       CDp       CM     Top_Xtr  Bot_Xtr
  ------ -------- --------- --------- -------- -------- --------
  -2.000   0.0804   0.02060   0.01210  -0.0497   0.5140   0.4727
  -1.500   0.0904   0.02064   0.01224  -0.0413   0.5028   0.5014
  -1.000   0.1366   0.02089   0.01240  -0.0398   0.4928   0.5299
  -0.500   0.1560   0.02116   0.01278  -0.0334   0.4834   0.5524
   0.000   0.2074   0.02143   0.01298  -0.0328   0.4749   0.5750
   0.500   0.2385   0.02190   0.01354  -0.0289   0.4667   0.5945
   1.000   0.2761   0.02233   0.01391  -0.0262   0.4593   0.6146
   1.500   0.3439   0.02270   0.01421  -0.0286   0.4526   0.6352
   2.000   0.3652   0.02335   0.01503  -0.0234   0.4463   0.6531
   2.500   0.4023   0.02393   0.01564  -0.0209   0.4401   0.6733
   3.000   0.4584   0.02433   0.01604  -0.0214   0.4349   0.6944
   3.500   0.5024   0.02511   0.01687  -0.0203   0.4297   0.7157
   4.000   0.5204   0.02613   0.01804  -0.0152   0.4243   0.7393
   4.500   0.5580   0.02691   0.01896  -0.0129   0.4194   0.7651
   5.000   0.6174   0.02735   0.01938  -0.0139   0.4151   0.7899
   5.500   0.6503   0.02856   0.02071  -0.0114   0.4105   0.8148
   6.000   0.6460   0.03047   0.02292  -0.0038   0.4057   0.8433
   6.500   0.6650   0.03202   0.02461   0.0004   0.4011   0.8726
   7.000   0.7202   0.03266   0.02519   0.0002   0.3971   0.9010
   7.500   0.7789   0.03410   0.02656  -0.0014   0.3931   0.9266
   8.000   0.7282   0.04042   0.03338   0.0067   0.3868   0.9539
   8.500   0.7661   0.04412   0.03715   0.0036   0.3811   0.9705
   9.000   0.8923   0.04363   0.03641  -0.0081   0.3781   0.9763
  -2.000   0.0804   0.02060   0.01210  -0.0497   0.5140   0.4727
  -1.500   0.0904   0.02064   0.01224  -0.0413   0.5028   0.5014
  -1.000   0.1366   0.02089   0.01240  -0.0398   0.4928   0.5299
  -0.500   0.1560   0.02116   0.01278  -0.0334   0.4834   0.5524
   0.000   0.2074   0.02143   0.01298  -0.0328   0.4749   0.5750
   0.500   0.2385   0.02190   0.01354  -0.0289   0.4667   0.5945
   1.000   0.2761   0.02233   0.01391  -0.0262   0.4593   0.6146
   1.500   0.3439   0.02270   0.01421  -0.0286   0.4526   0.6352
   2.000   0.3652   0.02335   0.01503  -0.0234   0.4463   0.6531
   2.500   0.4023   0.02393   0.01564  -0.0209   0.4401   0.6733
   3.000   0.4584   0.02433   0.01604  -0.0214   0.4349   0.6944
   3.500   0.5024   0.02511   0.01687  -0.0203   0.4297   0.7157
   4.000   0.5204   0.02613   0.01804  -0.0152   0.4243   0.7393
   4.500   0.5580   0.02691   0.01896  -0.0129   0.4194   0.7651
   5.000   0.6174   0.02735   0.01938  -0.0139   0.4151   0.7899
   5.500   0.6503   0.02856   0.02071  -0.0114   0.4105   0.8148
   6.000   0.6460   0.03047   0.02292  -0.0038   0.4057   0.8433
   6.500   0.6650   0.03202   0.02461   0.0004   0.4011   0.8726
   7.000   0.7202   0.03266   0.02519   0.0002   0.3971   0.9010
   7.500   0.7789   0.03410   0.02656  -0.0014   0.3931   0.9266
   8.000   0.7282   0.04042   0.03338   0.0067   0.3868   0.9539
   8.500   0.7661   0.04412   0.03715   0.0036   0.3811   0.9705
   9.000   0.8923   0.04363   0.03641  -0.0081   0.3781   0.9763
  -2.000   0.0804   0.02060   0.01210  -0.0497   0.5140   0.4727
  -1.500   0.0904   0.02064   0.01224  -0.0413   0.5028   0.5014
  -1.000   0.1366   0.02089   0.01240  -0.0398   0.4928   0.5299
  -0.500   0.1560   0.02116   0.01278  -0.0334   0.4834   0.5524
   0.000   0.2074   0.02143   0.01298  -0.0328   0.4749   0.5750
   0.500   0.2385   0.02190   0.01354  -0.0289   0.4667   0.5945
   1.000   0.2761   0.02233   0.01391  -0.0262   0.4593   0.6146
   1.500   0.3439   0.02270   0.01421  -0.0286   0.4526   0.6352
   2.000   0.3652   0.02335   0.01503  -0.0234   0.4463   0.6531
   2.500   0.4023   0.02393   0.01564  -0.0209   0.4401   0.6733
   3.000   0.4584   0.02433   0.01604  -0.0214   0.4349   0.6944
   3.500   0.5024   0.02511   0.01687  -0.0203   0.4297   0.7157
   4.000   0.5204   0.02613   0.01804  -0.0152   0.4243   0.7393
   4.500   0.5580   0.02691   0.01896  -0.0129   0.4194   0.7651
   5.000   0.6174   0.02735   0.01938  -0.0139   0.4151   0.7899
   5.500   0.6503   0.02856   0.02071  -0.0114   0.4105   0.8148
   6.000   0.6460   0.03047   0.02292  -0.0038   0.4057   0.8433
   6.500   0.6650   0.03202   0.02461   0.0004   0.4011   0.8726
   7.000   0.7202   0.03266   0.02519   0.0002   0.3971   0.9010
   7.500   0.7789   0.03410   0.02656  -0.0014   0.3931   0.9266
   8.000   0.7282   0.04042   0.03338   0.0067   0.3868   0.9539
   8.500   0.7661   0.04412   0.03715   0.0036   0.3811   0.9705
   9.000   0.8923   0.04363   0.03641  -0.0081   0.3781   0.9763
