  
       XFOIL         Version 6.99
  
 Calculated polar for: NACA 2222                                       
  
 1 1 Reynolds number fixed          Mach number fixed         
  
 xtrf =   1.000 (top)        1.000 (bottom)  
 Mach =   0.050     Re =     0.200 e 6     Ncrit =   9.000
  
   alpha    CL        CD       CDp       CM     Top_Xtr  Bot_Xtr
  ------ -------- --------- --------- -------- -------- --------
  -2.000  -0.0249   0.01400   0.00707  -0.0310   0.6806   0.5977
  -1.500   0.0255   0.01395   0.00697  -0.0294   0.6558   0.6254
  -1.000   0.0764   0.01393   0.00696  -0.0277   0.6307   0.6540
  -0.500   0.1263   0.01398   0.00698  -0.0259   0.6052   0.6850
   0.000   0.1757   0.01408   0.00700  -0.0240   0.5801   0.7157
   1.000   0.2753   0.01435   0.00719  -0.0206   0.5300   0.7703
   1.500   0.3241   0.01460   0.00742  -0.0186   0.5042   0.7978
   2.000   0.3718   0.01494   0.00771  -0.0164   0.4787   0.8261
   2.500   0.4191   0.01538   0.00805  -0.0141   0.4547   0.8540
   3.000   0.4654   0.01591   0.00846  -0.0117   0.4326   0.8818
   3.500   0.5189   0.01661   0.00903  -0.0107   0.4114   0.9046
   4.000   0.5796   0.01740   0.00971  -0.0114   0.3926   0.9248
   4.500   0.6558   0.01832   0.01050  -0.0155   0.3755   0.9389
   5.000   0.7418   0.01925   0.01128  -0.0218   0.3607   0.9493
   5.500   0.8221   0.02015   0.01196  -0.0272   0.3485   0.9625
   6.000   0.9036   0.02087   0.01274  -0.0330   0.3377   0.9746
   6.500   0.9913   0.02174   0.01344  -0.0402   0.3281   0.9837
   7.000   1.0721   0.02240   0.01419  -0.0462   0.3194   0.9947
   7.500   1.1383   0.02314   0.01477  -0.0495   0.3119   1.0000
   8.000   1.1555   0.02373   0.01547  -0.0435   0.3068   1.0000
   8.500   1.1720   0.02428   0.01608  -0.0371   0.3012   1.0000
   9.000   1.1983   0.02491   0.01664  -0.0325   0.2959   1.0000
   9.500   1.2220   0.02585   0.01762  -0.0275   0.2908   1.0000
  10.000   1.2299   0.02660   0.01850  -0.0196   0.2858   1.0000
