  
       XFOIL         Version 6.99
  
 Calculated polar for: NACA 4318                                       
  
 1 1 Reynolds number fixed          Mach number fixed         
  
 xtrf =   1.000 (top)        1.000 (bottom)  
 Mach =   0.050     Re =     0.200 e 6     Ncrit =   9.000
  
   alpha    CL        CD       CDp       CM     Top_Xtr  Bot_Xtr
  ------ -------- --------- --------- -------- -------- --------
  -2.000   0.2222   0.01432   0.00611  -0.0853   0.6864   0.2470
  -1.500   0.2671   0.01354   0.00566  -0.0832   0.6567   0.3204
  -1.000   0.3027   0.01245   0.00569  -0.0789   0.6284   0.6408
  -0.500   0.3468   0.01240   0.00586  -0.0754   0.5991   0.7648
   0.000   0.3939   0.01264   0.00611  -0.0722   0.5722   0.8485
   0.500   0.4492   0.01315   0.00642  -0.0707   0.5480   0.9112
   1.000   0.5244   0.01380   0.00681  -0.0738   0.5251   0.9503
   1.500   0.6248   0.01446   0.00719  -0.0826   0.5047   0.9731
   2.000   0.7285   0.01500   0.00744  -0.0926   0.4871   0.9929
   2.500   0.7961   0.01525   0.00759  -0.0959   0.4740   1.0000
   3.000   0.8333   0.01562   0.00782  -0.0931   0.4640   1.0000
   3.500   0.8710   0.01599   0.00810  -0.0901   0.4547   1.0000
   4.000   0.9128   0.01654   0.00852  -0.0878   0.4465   1.0000
   4.500   0.9521   0.01700   0.00898  -0.0849   0.4380   1.0000
   5.000   0.9997   0.01766   0.00946  -0.0836   0.4306   1.0000
   5.500   1.0387   0.01823   0.01012  -0.0806   0.4230   1.0000
   6.000   1.0841   0.01883   0.01067  -0.0789   0.4157   1.0000
   6.500   1.1318   0.01964   0.01144  -0.0778   0.4087   1.0000
   7.000   1.1735   0.02031   0.01222  -0.0755   0.4012   1.0000
   7.500   1.2251   0.02105   0.01286  -0.0751   0.3942   1.0000
   8.000   1.2660   0.02196   0.01391  -0.0729   0.3870   1.0000
   8.500   1.3104   0.02268   0.01469  -0.0713   0.3794   1.0000
   9.000   1.3611   0.02367   0.01564  -0.0710   0.3723   1.0000
   9.500   1.3941   0.02450   0.01669  -0.0675   0.3643   1.0000
  10.000   1.4473   0.02526   0.01735  -0.0676   0.3569   1.0000
  -2.000   0.2222   0.01432   0.00611  -0.0853   0.6864   0.2470
  -1.500   0.2671   0.01354   0.00566  -0.0832   0.6567   0.3204
  -1.000   0.3027   0.01245   0.00569  -0.0789   0.6284   0.6408
  -0.500   0.3468   0.01240   0.00586  -0.0754   0.5991   0.7648
   0.000   0.3939   0.01264   0.00611  -0.0722   0.5722   0.8485
   0.500   0.4492   0.01315   0.00642  -0.0707   0.5480   0.9112
   1.000   0.5244   0.01380   0.00681  -0.0738   0.5251   0.9503
   1.500   0.6248   0.01446   0.00719  -0.0826   0.5047   0.9731
   2.000   0.7285   0.01500   0.00744  -0.0926   0.4871   0.9929
   2.500   0.7961   0.01525   0.00759  -0.0959   0.4740   1.0000
   3.000   0.8333   0.01562   0.00782  -0.0931   0.4640   1.0000
   3.500   0.8710   0.01599   0.00810  -0.0901   0.4547   1.0000
   4.000   0.9128   0.01654   0.00852  -0.0878   0.4465   1.0000
   4.500   0.9521   0.01700   0.00898  -0.0849   0.4380   1.0000
   5.000   0.9997   0.01766   0.00946  -0.0836   0.4306   1.0000
   5.500   1.0387   0.01823   0.01012  -0.0806   0.4230   1.0000
   6.000   1.0841   0.01883   0.01067  -0.0789   0.4157   1.0000
   6.500   1.1318   0.01964   0.01144  -0.0778   0.4087   1.0000
   7.000   1.1735   0.02031   0.01222  -0.0755   0.4012   1.0000
   7.500   1.2251   0.02105   0.01286  -0.0751   0.3942   1.0000
   8.000   1.2660   0.02196   0.01391  -0.0729   0.3870   1.0000
   8.500   1.3104   0.02268   0.01469  -0.0713   0.3794   1.0000
   9.000   1.3611   0.02367   0.01564  -0.0710   0.3723   1.0000
   9.500   1.3941   0.02450   0.01669  -0.0675   0.3643   1.0000
  10.000   1.4473   0.02526   0.01735  -0.0676   0.3569   1.0000
  -2.000   0.2222   0.01432   0.00611  -0.0853   0.6864   0.2470
  -1.500   0.2671   0.01354   0.00566  -0.0832   0.6567   0.3204
  -1.000   0.3027   0.01245   0.00569  -0.0789   0.6284   0.6408
  -0.500   0.3468   0.01240   0.00586  -0.0754   0.5991   0.7648
   0.000   0.3939   0.01264   0.00611  -0.0722   0.5722   0.8485
   0.500   0.4492   0.01315   0.00642  -0.0707   0.5480   0.9112
   1.000   0.5244   0.01380   0.00681  -0.0738   0.5251   0.9503
   1.500   0.6248   0.01446   0.00719  -0.0826   0.5047   0.9731
   2.000   0.7285   0.01500   0.00744  -0.0926   0.4871   0.9929
   2.500   0.7961   0.01525   0.00759  -0.0959   0.4740   1.0000
   3.000   0.8333   0.01562   0.00782  -0.0931   0.4640   1.0000
   3.500   0.8710   0.01599   0.00810  -0.0901   0.4547   1.0000
   4.000   0.9128   0.01654   0.00852  -0.0878   0.4465   1.0000
   4.500   0.9521   0.01700   0.00898  -0.0849   0.4380   1.0000
   5.000   0.9997   0.01766   0.00946  -0.0836   0.4306   1.0000
   5.500   1.0387   0.01823   0.01012  -0.0806   0.4230   1.0000
   6.000   1.0841   0.01883   0.01067  -0.0789   0.4157   1.0000
   6.500   1.1318   0.01964   0.01144  -0.0778   0.4087   1.0000
   7.000   1.1735   0.02031   0.01222  -0.0755   0.4012   1.0000
   7.500   1.2251   0.02105   0.01286  -0.0751   0.3942   1.0000
   8.000   1.2660   0.02196   0.01391  -0.0729   0.3870   1.0000
   8.500   1.3104   0.02268   0.01469  -0.0713   0.3794   1.0000
   9.000   1.3611   0.02367   0.01564  -0.0710   0.3723   1.0000
   9.500   1.3941   0.02450   0.01669  -0.0675   0.3643   1.0000
  10.000   1.4473   0.02526   0.01735  -0.0676   0.3569   1.0000
