  
       XFOIL         Version 6.99
  
 Calculated polar for: NACA 2406                                       
  
 1 1 Reynolds number fixed          Mach number fixed         
  
 xtrf =   1.000 (top)        1.000 (bottom)  
 Mach =   0.050     Re =     0.200 e 6     Ncrit =   9.000
  
   alpha    CL        CD       CDp       CM     Top_Xtr  Bot_Xtr
  ------ -------- --------- --------- -------- -------- --------
  -2.000  -0.0648   0.01063   0.00337  -0.0398   1.0000   0.1776
  -1.500  -0.0137   0.00788   0.00324  -0.0386   1.0000   1.0000
  -1.000   0.0363   0.00810   0.00312  -0.0380   1.0000   1.0000
  -0.500   0.0860   0.00841   0.00321  -0.0377   0.9999   1.0000
   0.000   0.1753   0.00862   0.00323  -0.0453   0.9851   1.0000
   0.500   0.2650   0.00869   0.00324  -0.0527   0.9693   1.0000
   1.000   0.3467   0.00859   0.00317  -0.0579   0.9478   1.0000
   1.500   0.4175   0.00841   0.00308  -0.0603   0.9199   1.0000
   2.000   0.4753   0.00828   0.00301  -0.0595   0.8816   1.0000
   2.500   0.5268   0.00829   0.00304  -0.0573   0.8321   1.0000
   3.000   0.5740   0.00848   0.00306  -0.0540   0.7514   1.0000
   3.500   0.6199   0.00903   0.00323  -0.0509   0.6357   1.0000
   4.000   0.6639   0.01009   0.00372  -0.0480   0.4714   1.0000
   4.500   0.6939   0.01448   0.00591  -0.0445   0.0573   1.0000
   5.000   0.7393   0.01679   0.00829  -0.0425   0.0389   1.0000
   5.500   0.7851   0.01999   0.01167  -0.0403   0.0314   1.0000
   6.000   0.8351   0.02397   0.01605  -0.0382   0.0288   1.0000
   6.500   0.8821   0.03094   0.02389  -0.0353   0.0321   1.0000
