  
       XFOIL         Version 6.99
  
 Calculated polar for: NACA 0126                                       
  
 1 1 Reynolds number fixed          Mach number fixed         
  
 xtrf =   1.000 (top)        1.000 (bottom)  
 Mach =   0.050     Re =     0.200 e 6     Ncrit =   9.000
  
   alpha    CL        CD       CDp       CM     Top_Xtr  Bot_Xtr
  ------ -------- --------- --------- -------- -------- --------
  -2.000  -0.1937   0.01638   0.00872  -0.0069   0.6791   0.5191
  -1.500  -0.1463   0.01625   0.00857  -0.0050   0.6571   0.5373
  -1.000  -0.0997   0.01619   0.00846  -0.0029   0.6357   0.5564
  -0.500  -0.0505   0.01616   0.00844  -0.0013   0.6150   0.5757
   0.000  -0.0000   0.01614   0.00844   0.0000   0.5951   0.5951
   0.500   0.0505   0.01616   0.00844   0.0014   0.5757   0.6150
   1.000   0.0997   0.01619   0.00846   0.0029   0.5564   0.6357
   1.500   0.1463   0.01625   0.00857   0.0050   0.5373   0.6571
   2.000   0.1937   0.01638   0.00872   0.0069   0.5190   0.6791
   2.500   0.2418   0.01657   0.00888   0.0086   0.5017   0.7016
   3.500   0.3392   0.01699   0.00941   0.0121   0.4671   0.7460
   4.000   0.3864   0.01730   0.00980   0.0140   0.4505   0.7684
   4.500   0.4347   0.01769   0.01020   0.0158   0.4347   0.7907
   5.000   0.4842   0.01814   0.01060   0.0174   0.4190   0.8127
   5.500   0.5248   0.01856   0.01114   0.0205   0.4037   0.8349
   6.000   0.5690   0.01914   0.01174   0.0230   0.3889   0.8564
   6.500   0.6152   0.01980   0.01232   0.0251   0.3747   0.8774
   7.000   0.6544   0.02044   0.01300   0.0284   0.3607   0.8983
   7.500   0.7020   0.02133   0.01392   0.0299   0.3465   0.9161
   8.000   0.7668   0.02243   0.01497   0.0278   0.3319   0.9282
   8.500   0.8300   0.02346   0.01585   0.0257   0.3178   0.9425
   9.000   0.8832   0.02448   0.01696   0.0248   0.3041   0.9583
   9.500   0.9571   0.02569   0.01818   0.0196   0.2896   0.9663
  10.000   1.0183   0.02687   0.01932   0.0166   0.2768   0.9786
  -2.000  -0.1937   0.01638   0.00872  -0.0069   0.6791   0.5191
  -1.500  -0.1463   0.01625   0.00857  -0.0050   0.6571   0.5373
  -1.000  -0.0997   0.01619   0.00846  -0.0029   0.6357   0.5564
  -0.500  -0.0505   0.01616   0.00844  -0.0013   0.6150   0.5757
   0.000  -0.0000   0.01614   0.00844   0.0000   0.5951   0.5951
   0.500   0.0505   0.01616   0.00844   0.0014   0.5757   0.6150
   1.000   0.0997   0.01619   0.00846   0.0029   0.5564   0.6357
   1.500   0.1463   0.01625   0.00857   0.0050   0.5373   0.6571
   2.000   0.1937   0.01638   0.00872   0.0069   0.5190   0.6791
   2.500   0.2418   0.01657   0.00888   0.0086   0.5017   0.7016
   3.500   0.3392   0.01699   0.00941   0.0121   0.4671   0.7460
   4.000   0.3864   0.01730   0.00980   0.0140   0.4505   0.7684
   4.500   0.4347   0.01769   0.01020   0.0158   0.4347   0.7907
   5.000   0.4842   0.01814   0.01060   0.0174   0.4190   0.8127
   5.500   0.5248   0.01856   0.01114   0.0205   0.4037   0.8349
   6.000   0.5690   0.01914   0.01174   0.0230   0.3889   0.8564
   6.500   0.6152   0.01980   0.01232   0.0251   0.3747   0.8774
   7.000   0.6544   0.02044   0.01300   0.0284   0.3607   0.8983
   7.500   0.7020   0.02133   0.01392   0.0299   0.3465   0.9161
   8.000   0.7668   0.02243   0.01497   0.0278   0.3319   0.9282
   8.500   0.8300   0.02346   0.01585   0.0257   0.3178   0.9425
   9.000   0.8832   0.02448   0.01696   0.0248   0.3041   0.9583
   9.500   0.9571   0.02569   0.01818   0.0196   0.2896   0.9663
  10.000   1.0183   0.02687   0.01932   0.0166   0.2768   0.9786
