  
       XFOIL         Version 6.99
  
 Calculated polar for: NACA 4426                                       
  
 1 1 Reynolds number fixed          Mach number fixed         
  
 xtrf =   1.000 (top)        1.000 (bottom)  
 Mach =   0.050     Re =     0.200 e 6     Ncrit =   9.000
  
   alpha    CL        CD       CDp       CM     Top_Xtr  Bot_Xtr
  ------ -------- --------- --------- -------- -------- --------
  -2.000   0.2145   0.01768   0.00918  -0.0920   0.6255   0.3689
  -1.500   0.2627   0.01756   0.00912  -0.0906   0.6129   0.3961
  -1.000   0.3128   0.01742   0.00898  -0.0895   0.6008   0.4287
  -0.500   0.3566   0.01737   0.00916  -0.0874   0.5893   0.4674
   0.000   0.4073   0.01729   0.00919  -0.0863   0.5787   0.5174
   0.500   0.4501   0.01740   0.00954  -0.0838   0.5683   0.5729
   1.000   0.4994   0.01746   0.00973  -0.0824   0.5584   0.6302
   1.500   0.5453   0.01774   0.01018  -0.0803   0.5490   0.6821
   2.000   0.5914   0.01794   0.01050  -0.0781   0.5394   0.7306
   2.500   0.6435   0.01833   0.01094  -0.0771   0.5310   0.7776
   3.000   0.6814   0.01870   0.01151  -0.0733   0.5215   0.8204
   3.500   0.7388   0.01913   0.01185  -0.0730   0.5134   0.8637
   4.000   0.7765   0.01984   0.01272  -0.0692   0.5044   0.9020
   4.500   0.8394   0.02043   0.01323  -0.0703   0.4958   0.9363
   5.000   0.9190   0.02143   0.01418  -0.0753   0.4867   0.9580
   5.500   1.0107   0.02223   0.01491  -0.0831   0.4769   0.9745
   6.000   1.1146   0.02314   0.01572  -0.0934   0.4675   0.9876
   6.500   1.1994   0.02377   0.01634  -0.1005   0.4577   1.0000
   7.000   1.2250   0.02405   0.01644  -0.0961   0.4507   1.0000
   7.500   1.1663   0.02437   0.01692  -0.0762   0.4441   1.0000
   8.000   1.1828   0.02473   0.01719  -0.0698   0.4366   1.0000
   8.500   1.2099   0.02547   0.01787  -0.0655   0.4293   1.0000
   9.000   1.2118   0.02656   0.01905  -0.0575   0.4209   1.0000
   9.500   1.2781   0.02683   0.01909  -0.0597   0.4136   1.0000
  10.000   1.2594   0.02883   0.02134  -0.0498   0.4049   1.0000
  -2.000   0.2145   0.01768   0.00918  -0.0920   0.6255   0.3689
  -1.500   0.2627   0.01756   0.00912  -0.0906   0.6129   0.3961
  -1.000   0.3128   0.01742   0.00898  -0.0895   0.6008   0.4287
  -0.500   0.3566   0.01737   0.00916  -0.0874   0.5893   0.4674
   0.000   0.4073   0.01729   0.00919  -0.0863   0.5787   0.5174
   0.500   0.4501   0.01740   0.00954  -0.0838   0.5683   0.5729
   1.000   0.4994   0.01746   0.00973  -0.0824   0.5584   0.6302
   1.500   0.5453   0.01774   0.01018  -0.0803   0.5490   0.6821
   2.000   0.5914   0.01794   0.01050  -0.0781   0.5394   0.7306
   2.500   0.6435   0.01833   0.01094  -0.0771   0.5310   0.7776
   3.000   0.6814   0.01870   0.01151  -0.0733   0.5215   0.8204
   3.500   0.7388   0.01913   0.01185  -0.0730   0.5134   0.8637
   4.000   0.7765   0.01984   0.01272  -0.0692   0.5044   0.9020
   4.500   0.8394   0.02043   0.01323  -0.0703   0.4958   0.9363
   5.000   0.9190   0.02143   0.01418  -0.0753   0.4867   0.9580
   5.500   1.0107   0.02223   0.01491  -0.0831   0.4769   0.9745
   6.000   1.1146   0.02314   0.01572  -0.0934   0.4675   0.9876
   6.500   1.1994   0.02377   0.01634  -0.1005   0.4577   1.0000
   7.000   1.2250   0.02405   0.01644  -0.0961   0.4507   1.0000
   7.500   1.1663   0.02437   0.01692  -0.0762   0.4441   1.0000
   8.000   1.1828   0.02473   0.01719  -0.0698   0.4366   1.0000
   8.500   1.2099   0.02547   0.01787  -0.0655   0.4293   1.0000
   9.000   1.2118   0.02656   0.01905  -0.0575   0.4209   1.0000
   9.500   1.2781   0.02683   0.01909  -0.0597   0.4136   1.0000
  10.000   1.2594   0.02883   0.02134  -0.0498   0.4049   1.0000
  -2.000   0.2145   0.01768   0.00918  -0.0920   0.6255   0.3689
  -1.500   0.2627   0.01756   0.00912  -0.0906   0.6129   0.3961
  -1.000   0.3128   0.01742   0.00898  -0.0895   0.6008   0.4287
  -0.500   0.3566   0.01737   0.00916  -0.0874   0.5893   0.4674
   0.000   0.4073   0.01729   0.00919  -0.0863   0.5787   0.5174
   0.500   0.4501   0.01740   0.00954  -0.0838   0.5683   0.5729
   1.000   0.4994   0.01746   0.00973  -0.0824   0.5584   0.6302
   1.500   0.5453   0.01774   0.01018  -0.0803   0.5490   0.6821
   2.000   0.5914   0.01794   0.01050  -0.0781   0.5394   0.7306
   2.500   0.6435   0.01833   0.01094  -0.0771   0.5310   0.7776
   3.000   0.6814   0.01870   0.01151  -0.0733   0.5215   0.8204
   3.500   0.7388   0.01913   0.01185  -0.0730   0.5134   0.8637
   4.000   0.7765   0.01984   0.01272  -0.0692   0.5044   0.9020
   4.500   0.8394   0.02043   0.01323  -0.0703   0.4958   0.9363
   5.000   0.9190   0.02143   0.01418  -0.0753   0.4867   0.9580
   5.500   1.0107   0.02223   0.01491  -0.0831   0.4769   0.9745
   6.000   1.1146   0.02314   0.01572  -0.0934   0.4675   0.9876
   6.500   1.1994   0.02377   0.01634  -0.1005   0.4577   1.0000
   7.000   1.2250   0.02405   0.01644  -0.0961   0.4507   1.0000
   7.500   1.1663   0.02437   0.01692  -0.0762   0.4441   1.0000
   8.000   1.1828   0.02473   0.01719  -0.0698   0.4366   1.0000
   8.500   1.2099   0.02547   0.01787  -0.0655   0.4293   1.0000
   9.000   1.2118   0.02656   0.01905  -0.0575   0.4209   1.0000
   9.500   1.2781   0.02683   0.01909  -0.0597   0.4136   1.0000
  10.000   1.2594   0.02883   0.02134  -0.0498   0.4049   1.0000
