  
       XFOIL         Version 6.99
  
 Calculated polar for: NACA 1324                                       
  
 1 1 Reynolds number fixed          Mach number fixed         
  
 xtrf =   1.000 (top)        1.000 (bottom)  
 Mach =   0.050     Re =     0.200 e 6     Ncrit =   9.000
  
   alpha    CL        CD       CDp       CM     Top_Xtr  Bot_Xtr
  ------ -------- --------- --------- -------- -------- --------
  -2.000  -0.1086   0.01506   0.00774  -0.0224   0.6814   0.5473
  -1.500  -0.0590   0.01500   0.00766  -0.0207   0.6582   0.5719
  -1.000  -0.0091   0.01498   0.00761  -0.0191   0.6357   0.5962
  -0.500   0.0408   0.01499   0.00760  -0.0175   0.6135   0.6204
   0.000   0.0910   0.01505   0.00764  -0.0160   0.5922   0.6447
   0.500   0.1414   0.01515   0.00772  -0.0145   0.5717   0.6691
   1.000   0.1922   0.01529   0.00784  -0.0131   0.5523   0.6939
   1.500   0.2441   0.01550   0.00799  -0.0119   0.5338   0.7190
   2.000   0.2926   0.01567   0.00824  -0.0101   0.5158   0.7446
   2.500   0.3421   0.01596   0.00858  -0.0084   0.4989   0.7710
   3.000   0.3931   0.01634   0.00895  -0.0070   0.4835   0.7968
   3.500   0.4461   0.01676   0.00931  -0.0059   0.4687   0.8210
   4.000   0.4940   0.01717   0.00982  -0.0039   0.4541   0.8448
   4.500   0.5471   0.01776   0.01039  -0.0029   0.4407   0.8667
   5.000   0.6033   0.01836   0.01092  -0.0025   0.4272   0.8868
   5.500   0.6575   0.01902   0.01164  -0.0020   0.4136   0.9061
   6.000   0.7196   0.01979   0.01232  -0.0031   0.4008   0.9236
   6.500   0.7963   0.02058   0.01304  -0.0073   0.3867   0.9354
   7.000   0.8721   0.02137   0.01387  -0.0117   0.3724   0.9467
   7.500   0.9427   0.02215   0.01460  -0.0152   0.3593   0.9608
   8.000   1.0267   0.02294   0.01522  -0.0215   0.3452   0.9702
   8.500   1.0952   0.02358   0.01599  -0.0253   0.3315   0.9831
   9.000   1.1664   0.02434   0.01676  -0.0297   0.3180   0.9944
   9.500   1.2126   0.02495   0.01728  -0.0295   0.3067   1.0000
  10.000   1.1793   0.02521   0.01766  -0.0148   0.2994   1.0000
