  
       XFOIL         Version 6.99
  
 Calculated polar for: NACA 4124                                       
  
 1 1 Reynolds number fixed          Mach number fixed         
  
 xtrf =   1.000 (top)        1.000 (bottom)  
 Mach =   0.050     Re =     0.200 e 6     Ncrit =   9.000
  
   alpha    CL        CD       CDp       CM     Top_Xtr  Bot_Xtr
  ------ -------- --------- --------- -------- -------- --------
  -2.000   0.2318   0.01894   0.00988  -0.0548   0.6014   0.0848
  -1.500   0.2684   0.01842   0.00921  -0.0510   0.5785   0.0887
  -1.000   0.3067   0.01797   0.00857  -0.0475   0.5551   0.0955
  -0.500   0.3458   0.01761   0.00805  -0.0440   0.5313   0.1067
   0.000   0.3640   0.01588   0.00767  -0.0376   0.5125   0.4491
   0.500   0.3975   0.01554   0.00786  -0.0330   0.4933   0.5916
   1.000   0.4344   0.01554   0.00816  -0.0287   0.4738   0.6903
   1.500   0.4730   0.01576   0.00850  -0.0247   0.4537   0.7569
   2.000   0.5108   0.01612   0.00893  -0.0205   0.4332   0.8099
   2.500   0.5461   0.01661   0.00942  -0.0158   0.4124   0.8559
   3.000   0.5783   0.01725   0.01003  -0.0105   0.3914   0.8975
   3.500   0.6273   0.01830   0.01101  -0.0087   0.3672   0.9313
   4.000   0.6886   0.01945   0.01196  -0.0105   0.3391   0.9534
   4.500   0.7578   0.02077   0.01305  -0.0149   0.3047   0.9688
   5.000   0.8186   0.02249   0.01445  -0.0188   0.2657   0.9847
   5.500   0.8785   0.02462   0.01624  -0.0233   0.2329   0.9984
   6.000   0.8637   0.02555   0.01707  -0.0138   0.2209   1.0000
   6.500   0.8504   0.02663   0.01804  -0.0042   0.2125   1.0000
   7.000   0.8529   0.02800   0.01926   0.0025   0.2053   1.0000
   7.500   0.8692   0.02944   0.02060   0.0069   0.1994   1.0000
   8.000   0.8925   0.03094   0.02204   0.0099   0.1945   1.0000
   8.500   0.9233   0.03244   0.02334   0.0119   0.1905   1.0000
   9.000   0.9557   0.03397   0.02486   0.0135   0.1874   1.0000
   9.500   0.9870   0.03562   0.02653   0.0149   0.1843   1.0000
  10.000   1.0202   0.03727   0.02814   0.0160   0.1817   1.0000
  -2.000   0.2318   0.01894   0.00988  -0.0548   0.6014   0.0848
  -1.500   0.2684   0.01842   0.00921  -0.0510   0.5785   0.0887
  -1.000   0.3067   0.01797   0.00857  -0.0475   0.5551   0.0955
  -0.500   0.3458   0.01761   0.00805  -0.0440   0.5313   0.1067
   0.000   0.3640   0.01588   0.00767  -0.0376   0.5125   0.4491
   0.500   0.3975   0.01554   0.00786  -0.0330   0.4933   0.5916
   1.000   0.4344   0.01554   0.00816  -0.0287   0.4738   0.6903
   1.500   0.4730   0.01576   0.00850  -0.0247   0.4537   0.7569
   2.000   0.5108   0.01612   0.00893  -0.0205   0.4332   0.8099
   2.500   0.5461   0.01661   0.00942  -0.0158   0.4124   0.8559
   3.000   0.5783   0.01725   0.01003  -0.0105   0.3914   0.8975
   3.500   0.6273   0.01830   0.01101  -0.0087   0.3672   0.9313
   4.000   0.6886   0.01945   0.01196  -0.0105   0.3391   0.9534
   4.500   0.7578   0.02077   0.01305  -0.0149   0.3047   0.9688
   5.000   0.8186   0.02249   0.01445  -0.0188   0.2657   0.9847
   5.500   0.8785   0.02462   0.01624  -0.0233   0.2329   0.9984
   6.000   0.8637   0.02555   0.01707  -0.0138   0.2209   1.0000
   6.500   0.8504   0.02663   0.01804  -0.0042   0.2125   1.0000
   7.000   0.8529   0.02800   0.01926   0.0025   0.2053   1.0000
   7.500   0.8692   0.02944   0.02060   0.0069   0.1994   1.0000
   8.000   0.8925   0.03094   0.02204   0.0099   0.1945   1.0000
   8.500   0.9233   0.03244   0.02334   0.0119   0.1905   1.0000
   9.000   0.9557   0.03397   0.02486   0.0135   0.1874   1.0000
   9.500   0.9870   0.03562   0.02653   0.0149   0.1843   1.0000
  10.000   1.0202   0.03727   0.02814   0.0160   0.1817   1.0000
  -2.000   0.2318   0.01894   0.00988  -0.0548   0.6014   0.0848
  -1.500   0.2684   0.01842   0.00921  -0.0510   0.5785   0.0887
  -1.000   0.3067   0.01797   0.00857  -0.0475   0.5551   0.0955
  -0.500   0.3458   0.01761   0.00805  -0.0440   0.5313   0.1067
   0.000   0.3640   0.01588   0.00767  -0.0376   0.5125   0.4491
   0.500   0.3975   0.01554   0.00786  -0.0330   0.4933   0.5916
   1.000   0.4344   0.01554   0.00816  -0.0287   0.4738   0.6903
   1.500   0.4730   0.01576   0.00850  -0.0247   0.4537   0.7569
   2.000   0.5108   0.01612   0.00893  -0.0205   0.4332   0.8099
   2.500   0.5461   0.01661   0.00942  -0.0158   0.4124   0.8559
   3.000   0.5783   0.01725   0.01003  -0.0105   0.3914   0.8975
   3.500   0.6273   0.01830   0.01101  -0.0087   0.3672   0.9313
   4.000   0.6886   0.01945   0.01196  -0.0105   0.3391   0.9534
   4.500   0.7578   0.02077   0.01305  -0.0149   0.3047   0.9688
   5.000   0.8186   0.02249   0.01445  -0.0188   0.2657   0.9847
   5.500   0.8785   0.02462   0.01624  -0.0233   0.2329   0.9984
   6.000   0.8637   0.02555   0.01707  -0.0138   0.2209   1.0000
   6.500   0.8504   0.02663   0.01804  -0.0042   0.2125   1.0000
   7.000   0.8529   0.02800   0.01926   0.0025   0.2053   1.0000
   7.500   0.8692   0.02944   0.02060   0.0069   0.1994   1.0000
   8.000   0.8925   0.03094   0.02204   0.0099   0.1945   1.0000
   8.500   0.9233   0.03244   0.02334   0.0119   0.1905   1.0000
   9.000   0.9557   0.03397   0.02486   0.0135   0.1874   1.0000
   9.500   0.9870   0.03562   0.02653   0.0149   0.1843   1.0000
  10.000   1.0202   0.03727   0.02814   0.0160   0.1817   1.0000
