  
       XFOIL         Version 6.99
  
 Calculated polar for: NACA 8838                                       
  
 1 1 Reynolds number fixed          Mach number fixed         
  
 xtrf =   1.000 (top)        1.000 (bottom)  
 Mach =   0.050     Re =     0.200 e 6     Ncrit =   9.000
  
   alpha    CL        CD       CDp       CM     Top_Xtr  Bot_Xtr
  ------ -------- --------- --------- -------- -------- --------
  -2.000   0.1974   0.03335   0.02561  -0.1669   0.6636   0.3378
  -1.500   0.2680   0.03275   0.02502  -0.1706   0.6537   0.3468
  -1.000   0.3689   0.03192   0.02405  -0.1799   0.6457   0.3580
  -0.500   0.3870   0.03314   0.02531  -0.1758   0.6309   0.3658
   0.000   0.4762   0.03239   0.02453  -0.1823   0.6230   0.3762
   0.500   0.4997   0.03395   0.02613  -0.1791   0.6096   0.3851
   1.000   0.5687   0.03366   0.02581  -0.1827   0.6002   0.3955
   1.500   0.6339   0.03403   0.02616  -0.1856   0.5909   0.4065
   2.000   0.6657   0.03544   0.02754  -0.1840   0.5787   0.4158
   2.500   0.7443   0.03490   0.02701  -0.1885   0.5710   0.4279
   3.000   0.7592   0.03707   0.02930  -0.1838   0.5595   0.4375
   3.500   0.8161   0.03751   0.02969  -0.1857   0.5500   0.4491
   4.000   0.9038   0.03704   0.02912  -0.1919   0.5427   0.4624
   4.500   0.8885   0.04051   0.03280  -0.1829   0.5307   0.4708
   5.000   0.9537   0.04046   0.03273  -0.1856   0.5230   0.4836
   5.500   0.9917   0.04200   0.03433  -0.1845   0.5144   0.4952
   6.000   1.0057   0.04487   0.03725  -0.1806   0.5038   0.5055
   6.500   1.0752   0.04439   0.03676  -0.1835   0.4972   0.5193
   7.000   1.0666   0.04845   0.04105  -0.1763   0.4871   0.5290
   7.500   1.1038   0.05044   0.04299  -0.1761   0.4782   0.5413
   8.000   1.1786   0.04940   0.04191  -0.1791   0.4726   0.5558
   8.500   1.1122   0.05756   0.05049  -0.1662   0.4600   0.5621
   9.000   1.1795   0.05771   0.05048  -0.1697   0.4535   0.5769
   9.500   1.2614   0.05574   0.04843  -0.1728   0.4488   0.5917
  10.000   1.1389   0.06906   0.06232  -0.1563   0.4334   0.5943
