  
       XFOIL         Version 6.99
  
 Calculated polar for: NACA 4726                                       
  
 1 1 Reynolds number fixed          Mach number fixed         
  
 xtrf =   1.000 (top)        1.000 (bottom)  
 Mach =   0.050     Re =     0.200 e 6     Ncrit =   9.000
  
   alpha    CL        CD       CDp       CM     Top_Xtr  Bot_Xtr
  ------ -------- --------- --------- -------- -------- --------
  -1.500   0.1719   0.01976   0.01250  -0.1066   0.7546   0.4257
  -1.000   0.2408   0.01892   0.01172  -0.1085   0.7395   0.4449
  -0.500   0.3206   0.01798   0.01077  -0.1124   0.7244   0.4657
   0.000   0.4011   0.01728   0.01001  -0.1166   0.7064   0.4872
   0.500   0.4760   0.01699   0.00960  -0.1199   0.6860   0.5088
   1.000   0.5411   0.01708   0.00956  -0.1216   0.6645   0.5300
   1.500   0.6005   0.01727   0.00974  -0.1221   0.6438   0.5503
   2.000   0.6590   0.01754   0.00995  -0.1225   0.6241   0.5705
   2.500   0.7017   0.01796   0.01037  -0.1200   0.6046   0.5903
   3.000   0.7434   0.01847   0.01086  -0.1174   0.5859   0.6110
   3.500   0.7882   0.01898   0.01142  -0.1153   0.5683   0.6304
   4.000   0.8371   0.01947   0.01188  -0.1140   0.5517   0.6496
   4.500   0.8845   0.01998   0.01231  -0.1124   0.5352   0.6694
   5.000   0.9182   0.02070   0.01307  -0.1087   0.5187   0.6894
   5.500   0.9600   0.02131   0.01371  -0.1062   0.5033   0.7079
   6.000   1.0090   0.02183   0.01413  -0.1050   0.4884   0.7268
   6.500   1.0372   0.02257   0.01498  -0.1005   0.4733   0.7458
   7.000   1.0753   0.02328   0.01571  -0.0978   0.4588   0.7657
   7.500   1.1209   0.02387   0.01620  -0.0964   0.4449   0.7862
   8.000   1.1455   0.02478   0.01724  -0.0916   0.4309   0.8070
   8.500   1.1788   0.02559   0.01811  -0.0884   0.4176   0.8289
   9.000   1.2200   0.02619   0.01863  -0.0863   0.4045   0.8532
   9.500   1.2326   0.02732   0.02003  -0.0799   0.3917   0.8824
  10.000   1.2585   0.02799   0.02079  -0.0753   0.3798   0.9428
