  
       XFOIL         Version 6.99
  
 Calculated polar for: NACA 4538                                       
  
 1 1 Reynolds number fixed          Mach number fixed         
  
 xtrf =   1.000 (top)        1.000 (bottom)  
 Mach =   0.050     Re =     0.200 e 6     Ncrit =   9.000
  
   alpha    CL        CD       CDp       CM     Top_Xtr  Bot_Xtr
  ------ -------- --------- --------- -------- -------- --------
  -2.000   0.0719   0.02563   0.01687  -0.0708   0.5942   0.3807
  -1.500   0.0350   0.02648   0.01784  -0.0554   0.5833   0.3872
  -1.000   0.0941   0.02599   0.01724  -0.0566   0.5754   0.3983
  -0.500   0.1205   0.02645   0.01777  -0.0524   0.5666   0.4079
   0.000   0.1379   0.02695   0.01820  -0.0468   0.5571   0.4177
   0.500   0.2278   0.02619   0.01742  -0.0530   0.5506   0.4317
   1.000   0.1998   0.02781   0.01918  -0.0406   0.5399   0.4401
   1.500   0.2618   0.02743   0.01878  -0.0423   0.5327   0.4535
   2.000   0.2970   0.02808   0.01945  -0.0400   0.5248   0.4663
   2.500   0.3043   0.02922   0.02066  -0.0340   0.5152   0.4777
   3.000   0.3917   0.02844   0.01981  -0.0392   0.5095   0.4950
   3.500   0.3577   0.03121   0.02275  -0.0281   0.4987   0.5046
   4.000   0.4185   0.03097   0.02257  -0.0296   0.4922   0.5221
   4.500   0.4846   0.03090   0.02243  -0.0320   0.4861   0.5405
   5.000   0.4423   0.03450   0.02634  -0.0210   0.4748   0.5522
   5.500   0.5357   0.03309   0.02480  -0.0264   0.4703   0.5750
   6.000   0.4546   0.03949   0.03159  -0.0127   0.4568   0.5853
   6.500   0.5409   0.03793   0.02997  -0.0168   0.4528   0.6108
   7.000   0.6515   0.03579   0.02768  -0.0238   0.4494   0.6404
   7.500   0.5319   0.04489   0.03731  -0.0078   0.4342   0.6518
   8.000   0.6412   0.04174   0.03412  -0.0135   0.4321   0.6879
   9.000   0.6214   0.04995   0.04280  -0.0044   0.4139   0.7485
  -2.000   0.0719   0.02563   0.01687  -0.0708   0.5942   0.3807
  -1.500   0.0350   0.02648   0.01784  -0.0554   0.5833   0.3872
  -1.000   0.0941   0.02599   0.01724  -0.0566   0.5754   0.3983
  -0.500   0.1205   0.02645   0.01777  -0.0524   0.5666   0.4079
   0.000   0.1379   0.02695   0.01820  -0.0468   0.5571   0.4177
   0.500   0.2278   0.02619   0.01742  -0.0530   0.5506   0.4317
   1.000   0.1998   0.02781   0.01918  -0.0406   0.5399   0.4401
   1.500   0.2618   0.02743   0.01878  -0.0423   0.5327   0.4535
   2.000   0.2970   0.02808   0.01945  -0.0400   0.5248   0.4663
   2.500   0.3043   0.02922   0.02066  -0.0340   0.5152   0.4777
   3.000   0.3917   0.02844   0.01981  -0.0392   0.5095   0.4950
   3.500   0.3577   0.03121   0.02275  -0.0281   0.4987   0.5046
   4.000   0.4185   0.03097   0.02257  -0.0296   0.4922   0.5221
   4.500   0.4846   0.03090   0.02243  -0.0320   0.4861   0.5405
   5.000   0.4423   0.03450   0.02634  -0.0210   0.4748   0.5522
   5.500   0.5357   0.03309   0.02480  -0.0264   0.4703   0.5750
   6.000   0.4546   0.03949   0.03159  -0.0127   0.4568   0.5853
   6.500   0.5409   0.03793   0.02997  -0.0168   0.4528   0.6108
   7.000   0.6515   0.03579   0.02768  -0.0238   0.4494   0.6404
   7.500   0.5319   0.04489   0.03731  -0.0078   0.4342   0.6518
   8.000   0.6412   0.04174   0.03412  -0.0135   0.4321   0.6879
   9.000   0.6214   0.04995   0.04280  -0.0044   0.4139   0.7485
  -2.000   0.0719   0.02563   0.01687  -0.0708   0.5942   0.3807
  -1.500   0.0350   0.02648   0.01784  -0.0554   0.5833   0.3872
  -1.000   0.0941   0.02599   0.01724  -0.0566   0.5754   0.3983
  -0.500   0.1205   0.02645   0.01777  -0.0524   0.5666   0.4079
   0.000   0.1379   0.02695   0.01820  -0.0468   0.5571   0.4177
   0.500   0.2278   0.02619   0.01742  -0.0530   0.5506   0.4317
   1.000   0.1998   0.02781   0.01918  -0.0406   0.5399   0.4401
   1.500   0.2618   0.02743   0.01878  -0.0423   0.5327   0.4535
   2.000   0.2970   0.02808   0.01945  -0.0400   0.5248   0.4663
   2.500   0.3043   0.02922   0.02066  -0.0340   0.5152   0.4777
   3.000   0.3917   0.02844   0.01981  -0.0392   0.5095   0.4950
   3.500   0.3577   0.03121   0.02275  -0.0281   0.4987   0.5046
   4.000   0.4185   0.03097   0.02257  -0.0296   0.4922   0.5221
   4.500   0.4846   0.03090   0.02243  -0.0320   0.4861   0.5405
   5.000   0.4423   0.03450   0.02634  -0.0210   0.4748   0.5522
   5.500   0.5357   0.03309   0.02480  -0.0264   0.4703   0.5750
   6.000   0.4546   0.03949   0.03159  -0.0127   0.4568   0.5853
   6.500   0.5409   0.03793   0.02997  -0.0168   0.4528   0.6108
   7.000   0.6515   0.03579   0.02768  -0.0238   0.4494   0.6404
   7.500   0.5319   0.04489   0.03731  -0.0078   0.4342   0.6518
   8.000   0.6412   0.04174   0.03412  -0.0135   0.4321   0.6879
   9.000   0.6214   0.04995   0.04280  -0.0044   0.4139   0.7485
