  
       XFOIL         Version 6.99
  
 Calculated polar for: NACA 2340                                       
  
 1 1 Reynolds number fixed          Mach number fixed         
  
 xtrf =   1.000 (top)        1.000 (bottom)  
 Mach =   0.050     Re =     0.200 e 6     Ncrit =   9.000
  
   alpha    CL        CD       CDp       CM     Top_Xtr  Bot_Xtr
  ------ -------- --------- --------- -------- -------- --------
  -2.000  -0.0611   0.02525   0.01658  -0.0234   0.5133   0.4737
  -1.500  -0.0538   0.02526   0.01638  -0.0153   0.5049   0.4855
  -1.000  -0.0554   0.02536   0.01671  -0.0055   0.4957   0.4955
  -0.500  -0.0334   0.02536   0.01656   0.0000   0.4878   0.5076
   0.000  -0.0046   0.02563   0.01692   0.0039   0.4799   0.5188
   0.500   0.0045   0.02599   0.01733   0.0113   0.4718   0.5300
   1.000   0.0508   0.02596   0.01718   0.0122   0.4647   0.5422
   1.500   0.0757   0.02661   0.01795   0.0164   0.4579   0.5535
   2.000   0.0839   0.02718   0.01849   0.0233   0.4507   0.5648
   2.500   0.1391   0.02727   0.01862   0.0225   0.4444   0.5775
   3.000   0.1759   0.02794   0.01926   0.0244   0.4386   0.5905
   3.500   0.1753   0.02902   0.02056   0.0316   0.4319   0.6020
   4.000   0.2151   0.02951   0.02105   0.0330   0.4261   0.6157
   4.500   0.2925   0.02950   0.02091   0.0288   0.4210   0.6309
   5.000   0.2590   0.03187   0.02362   0.0396   0.4148   0.6436
   5.500   0.2674   0.03340   0.02524   0.0442   0.4086   0.6585
   6.000   0.3326   0.03339   0.02523   0.0420   0.4043   0.6744
   6.500   0.3530   0.03506   0.02695   0.0447   0.3989   0.6902
   7.000   0.2369   0.04296   0.03542   0.0597   0.3888   0.7020
   7.500   0.3172   0.04174   0.03407   0.0565   0.3858   0.7216
   8.000   0.4274   0.03967   0.03188   0.0506   0.3831   0.7433
