  
       XFOIL         Version 6.99
  
 Calculated polar for: NACA 4340                                       
  
 1 1 Reynolds number fixed          Mach number fixed         
  
 xtrf =   1.000 (top)        1.000 (bottom)  
 Mach =   0.050     Re =     0.200 e 6     Ncrit =   9.000
  
   alpha    CL        CD       CDp       CM     Top_Xtr  Bot_Xtr
  ------ -------- --------- --------- -------- -------- --------
  -2.000  -0.0431   0.02500   0.01632  -0.0245   0.4890   0.4585
  -1.500  -0.0391   0.02532   0.01669  -0.0163   0.4807   0.4777
  -1.000   0.0005   0.02546   0.01664  -0.0141   0.4735   0.4981
  -0.500   0.0191   0.02610   0.01748  -0.0087   0.4660   0.5143
   0.000   0.0435   0.02657   0.01795  -0.0044   0.4591   0.5304
   0.500   0.0975   0.02685   0.01814  -0.0048   0.4533   0.5473
   1.000   0.1222   0.02765   0.01904  -0.0011   0.4474   0.5612
   1.500   0.1387   0.02861   0.02010   0.0038   0.4412   0.5752
   2.000   0.1841   0.02900   0.02045   0.0043   0.4362   0.5898
   2.500   0.2612   0.02931   0.02061   0.0002   0.4316   0.6059
   3.000   0.2375   0.03125   0.02282   0.0099   0.4265   0.6177
   3.500   0.2484   0.03287   0.02462   0.0143   0.4212   0.6312
   4.000   0.2937   0.03352   0.02519   0.0144   0.4172   0.6472
   4.500   0.3735   0.03349   0.02511   0.0103   0.4135   0.6656
   5.000   0.2691   0.03996   0.03205   0.0264   0.4066   0.6768
   5.500   0.1852   0.04815   0.04067   0.0369   0.3983   0.6887
   6.000   0.2838   0.04570   0.03806   0.0324   0.3969   0.7122
   6.500   0.3912   0.04351   0.03578   0.0268   0.3950   0.7357
   8.000  -0.3287   0.12916   0.12309   0.0606   0.3503   0.7300
   8.500  -0.2804   0.13139   0.12544   0.0598   0.3475   0.7575
   9.000  -0.2228   0.13436   0.12856   0.0588   0.3461   0.7905
   9.500  -0.2549   0.13902   0.13340   0.0602   0.3345   0.8143
  10.000  -0.2108   0.14143   0.13595   0.0603   0.3322   0.8490
  -2.000  -0.0431   0.02500   0.01632  -0.0245   0.4890   0.4585
  -1.500  -0.0391   0.02532   0.01669  -0.0163   0.4807   0.4777
  -1.000   0.0005   0.02546   0.01664  -0.0141   0.4735   0.4981
  -0.500   0.0191   0.02610   0.01748  -0.0087   0.4660   0.5143
   0.000   0.0435   0.02657   0.01795  -0.0044   0.4591   0.5304
   0.500   0.0975   0.02685   0.01814  -0.0048   0.4533   0.5473
   1.000   0.1222   0.02765   0.01904  -0.0011   0.4474   0.5612
   1.500   0.1387   0.02861   0.02010   0.0038   0.4412   0.5752
   2.000   0.1841   0.02900   0.02045   0.0043   0.4362   0.5898
   2.500   0.2612   0.02931   0.02061   0.0002   0.4316   0.6059
   3.000   0.2375   0.03125   0.02282   0.0099   0.4265   0.6177
   3.500   0.2484   0.03287   0.02462   0.0143   0.4212   0.6312
   4.000   0.2937   0.03352   0.02519   0.0144   0.4172   0.6472
   4.500   0.3735   0.03349   0.02511   0.0103   0.4135   0.6656
   5.000   0.2691   0.03996   0.03205   0.0264   0.4066   0.6768
   5.500   0.1852   0.04815   0.04067   0.0369   0.3983   0.6887
   6.000   0.2838   0.04570   0.03806   0.0324   0.3969   0.7122
   6.500   0.3912   0.04351   0.03578   0.0268   0.3950   0.7357
   8.000  -0.3287   0.12916   0.12309   0.0606   0.3503   0.7300
   8.500  -0.2804   0.13139   0.12544   0.0598   0.3475   0.7575
   9.000  -0.2228   0.13436   0.12856   0.0588   0.3461   0.7905
   9.500  -0.2549   0.13902   0.13340   0.0602   0.3345   0.8143
  10.000  -0.2108   0.14143   0.13595   0.0603   0.3322   0.8490
  -2.000  -0.0431   0.02500   0.01632  -0.0245   0.4890   0.4585
  -1.500  -0.0391   0.02532   0.01669  -0.0163   0.4807   0.4777
  -1.000   0.0005   0.02546   0.01664  -0.0141   0.4735   0.4981
  -0.500   0.0191   0.02610   0.01748  -0.0087   0.4660   0.5143
   0.000   0.0435   0.02657   0.01795  -0.0044   0.4591   0.5304
   0.500   0.0975   0.02685   0.01814  -0.0048   0.4533   0.5473
   1.000   0.1222   0.02765   0.01904  -0.0011   0.4474   0.5612
   1.500   0.1387   0.02861   0.02010   0.0038   0.4412   0.5752
   2.000   0.1841   0.02900   0.02045   0.0043   0.4362   0.5898
   2.500   0.2612   0.02931   0.02061   0.0002   0.4316   0.6059
   3.000   0.2375   0.03125   0.02282   0.0099   0.4265   0.6177
   3.500   0.2484   0.03287   0.02462   0.0143   0.4212   0.6312
   4.000   0.2937   0.03352   0.02519   0.0144   0.4172   0.6472
   4.500   0.3735   0.03349   0.02511   0.0103   0.4135   0.6656
   5.000   0.2691   0.03996   0.03205   0.0264   0.4066   0.6768
   5.500   0.1852   0.04815   0.04067   0.0369   0.3983   0.6887
   6.000   0.2838   0.04570   0.03806   0.0324   0.3969   0.7122
   6.500   0.3912   0.04351   0.03578   0.0268   0.3950   0.7357
   8.000  -0.3287   0.12916   0.12309   0.0606   0.3503   0.7300
   8.500  -0.2804   0.13139   0.12544   0.0598   0.3475   0.7575
   9.000  -0.2228   0.13436   0.12856   0.0588   0.3461   0.7905
   9.500  -0.2549   0.13902   0.13340   0.0602   0.3345   0.8143
  10.000  -0.2108   0.14143   0.13595   0.0603   0.3322   0.8490
