  
       XFOIL         Version 6.99
  
 Calculated polar for: NACA 9010                                       
  
 1 1 Reynolds number fixed          Mach number fixed         
  
 xtrf =   1.000 (top)        1.000 (bottom)  
 Mach =   0.050     Re =     0.200 e 6     Ncrit =   9.000
  
   alpha    CL        CD       CDp       CM     Top_Xtr  Bot_Xtr
  ------ -------- --------- --------- -------- -------- --------
  -2.000   0.6487   0.00974   0.00402  -0.0672   0.7144   1.0001
  -1.500   0.6986   0.01003   0.00418  -0.0656   0.6610   1.0001
  -1.000   0.7473   0.01046   0.00442  -0.0639   0.5995   1.0001
  -0.500   0.7944   0.01106   0.00478  -0.0621   0.5276   1.0001
   0.000   0.8389   0.01189   0.00531  -0.0602   0.4397   1.0001
   0.500   0.8799   0.01310   0.00604  -0.0580   0.3284   1.0001
   1.000   0.9159   0.01500   0.00721  -0.0555   0.1884   1.0001
   1.500   0.9509   0.01729   0.00893  -0.0529   0.1040   1.0001
   2.000   0.9886   0.01928   0.01081  -0.0506   0.0762   1.0001
   2.500   1.0258   0.02141   0.01289  -0.0483   0.0623   1.0001
   3.000   1.0648   0.02361   0.01518  -0.0463   0.0533   1.0001
   3.500   1.1048   0.02634   0.01802  -0.0446   0.0468   1.0001
   4.000   1.1464   0.02903   0.02079  -0.0434   0.0421   1.0001
   4.500   1.1863   0.03282   0.02498  -0.0419   0.0385   1.0001
   5.000   1.2213   0.03628   0.02883  -0.0400   0.0356   1.0001
   5.500   1.2513   0.04094   0.03380  -0.0380   0.0338   1.0001
   6.000   1.2575   0.04772   0.04127  -0.0334   0.0326   1.0001
   6.500   1.2419   0.05296   0.04721  -0.0263   0.0318   1.0001
   7.000   1.2107   0.05979   0.05462  -0.0203   0.0316   1.0001
   7.500   1.1701   0.06859   0.06390  -0.0178   0.0318   1.0001
   8.000   1.1245   0.07982   0.07555  -0.0197   0.0322   1.0001
   8.500   1.0767   0.09409   0.09013  -0.0257   0.0327   1.0001
  -2.000   0.6487   0.00974   0.00402  -0.0672   0.7144   1.0001
  -1.500   0.6986   0.01003   0.00418  -0.0656   0.6610   1.0001
  -1.000   0.7473   0.01046   0.00442  -0.0639   0.5995   1.0001
  -0.500   0.7944   0.01106   0.00478  -0.0621   0.5276   1.0001
   0.000   0.8389   0.01189   0.00531  -0.0602   0.4397   1.0001
   0.500   0.8799   0.01310   0.00604  -0.0580   0.3284   1.0001
   1.000   0.9159   0.01500   0.00721  -0.0555   0.1884   1.0001
   1.500   0.9509   0.01729   0.00893  -0.0529   0.1040   1.0001
   2.000   0.9886   0.01928   0.01081  -0.0506   0.0762   1.0001
   2.500   1.0258   0.02141   0.01289  -0.0483   0.0623   1.0001
   3.000   1.0648   0.02361   0.01518  -0.0463   0.0533   1.0001
   3.500   1.1048   0.02634   0.01802  -0.0446   0.0468   1.0001
   4.000   1.1464   0.02903   0.02079  -0.0434   0.0421   1.0001
   4.500   1.1863   0.03282   0.02498  -0.0419   0.0385   1.0001
   5.000   1.2213   0.03628   0.02883  -0.0400   0.0356   1.0001
   5.500   1.2513   0.04094   0.03380  -0.0380   0.0338   1.0001
   6.000   1.2575   0.04772   0.04127  -0.0334   0.0326   1.0001
   6.500   1.2419   0.05296   0.04721  -0.0263   0.0318   1.0001
   7.000   1.2107   0.05979   0.05462  -0.0203   0.0316   1.0001
   7.500   1.1701   0.06859   0.06390  -0.0178   0.0318   1.0001
   8.000   1.1245   0.07982   0.07555  -0.0197   0.0322   1.0001
   8.500   1.0767   0.09409   0.09013  -0.0257   0.0327   1.0001
