  
       XFOIL         Version 6.99
  
 Calculated polar for: NACA 3312                                       
  
 1 1 Reynolds number fixed          Mach number fixed         
  
 xtrf =   1.000 (top)        1.000 (bottom)  
 Mach =   0.050     Re =     0.200 e 6     Ncrit =   9.000
  
   alpha    CL        CD       CDp       CM     Top_Xtr  Bot_Xtr
  ------ -------- --------- --------- -------- -------- --------
  -2.000   0.1210   0.01225   0.00509  -0.0719   0.8720   0.2471
  -1.500   0.1621   0.01014   0.00466  -0.0685   0.8464   0.6674
  -1.000   0.2119   0.00963   0.00467  -0.0643   0.8169   0.8962
  -0.500   0.3086   0.00970   0.00446  -0.0709   0.7828   0.9805
   0.000   0.3941   0.00969   0.00409  -0.0768   0.7408   1.0000
   0.500   0.4402   0.00982   0.00385  -0.0747   0.6968   1.0000
   1.000   0.4863   0.01007   0.00376  -0.0726   0.6517   1.0000
   1.500   0.5325   0.01042   0.00380  -0.0706   0.6095   1.0000
   2.000   0.5794   0.01085   0.00393  -0.0688   0.5728   1.0000
   2.500   0.6270   0.01132   0.00416  -0.0671   0.5428   1.0000
   3.000   0.6759   0.01183   0.00445  -0.0657   0.5185   1.0000
   3.500   0.7257   0.01234   0.00484  -0.0645   0.4977   1.0000
   4.000   0.7764   0.01287   0.00529  -0.0635   0.4796   1.0000
   4.500   0.8275   0.01342   0.00578  -0.0626   0.4635   1.0000
   5.000   0.8789   0.01400   0.00633  -0.0618   0.4483   1.0000
   5.500   0.9303   0.01460   0.00692  -0.0611   0.4335   1.0000
   6.000   0.9813   0.01521   0.00752  -0.0602   0.4183   1.0000
   6.500   1.0312   0.01578   0.00814  -0.0592   0.4017   1.0000
   7.000   1.0790   0.01627   0.00874  -0.0578   0.3826   1.0000
   7.500   1.1257   0.01674   0.00930  -0.0563   0.3624   1.0000
   8.000   1.1713   0.01723   0.00986  -0.0546   0.3418   1.0000
   8.500   1.2146   0.01773   0.01049  -0.0525   0.3188   1.0000
   9.000   1.2551   0.01823   0.01110  -0.0500   0.2913   1.0000
   9.500   1.2921   0.01889   0.01189  -0.0471   0.2528   1.0000
  10.000   1.3185   0.02031   0.01314  -0.0429   0.1987   1.0000
