  
       XFOIL         Version 6.99
  
 Calculated polar for: NACA 7336                                       
  
 1 1 Reynolds number fixed          Mach number fixed         
  
 xtrf =   1.000 (top)        1.000 (bottom)  
 Mach =   0.050     Re =     0.200 e 6     Ncrit =   9.000
  
   alpha    CL        CD       CDp       CM     Top_Xtr  Bot_Xtr
  ------ -------- --------- --------- -------- -------- --------
  -2.000   0.2071   0.02755   0.01746  -0.0690   0.4636   0.2238
  -1.500   0.2365   0.02774   0.01763  -0.0655   0.4562   0.2331
  -1.000   0.2917   0.02756   0.01738  -0.0662   0.4498   0.2464
  -0.500   0.3172   0.02792   0.01788  -0.0625   0.4444   0.2590
   0.000   0.3483   0.02832   0.01833  -0.0597   0.4391   0.2749
   0.500   0.3910   0.02816   0.01834  -0.0588   0.4345   0.3026
   1.000   0.4450   0.02748   0.01844  -0.0596   0.4301   0.4576
   1.500   0.4524   0.02861   0.02008  -0.0535   0.4261   0.5586
   2.000   0.4780   0.02978   0.02150  -0.0502   0.4220   0.6136
   2.500   0.5169   0.03071   0.02252  -0.0488   0.4184   0.6564
   3.000   0.5743   0.03119   0.02301  -0.0497   0.4152   0.6943
   3.500   0.6158   0.03246   0.02434  -0.0489   0.4117   0.7271
   4.000   0.5994   0.03541   0.02764  -0.0413   0.4082   0.7560
   4.500   0.5812   0.03905   0.03163  -0.0342   0.4043   0.7881
   5.000   0.5818   0.04208   0.03491  -0.0293   0.4007   0.8260
   5.500   0.6324   0.04254   0.03539  -0.0286   0.3981   0.8736
   6.500  -0.1255   0.13553   0.13021   0.0008   0.3699   0.7631
   7.000  -0.0924   0.13774   0.13275   0.0030   0.3666   0.8428
   7.500  -0.0383   0.14083   0.13600   0.0026   0.3649   0.9437
   9.500   0.0461   0.15784   0.15266  -0.0068   0.3406   1.0000
  10.000   0.0844   0.16021   0.15488  -0.0078   0.3369   1.0000
