  
       XFOIL         Version 6.99
  
 Calculated polar for: NACA 9210                                       
  
 1 1 Reynolds number fixed          Mach number fixed         
  
 xtrf =   1.000 (top)        1.000 (bottom)  
 Mach =   0.050     Re =     0.200 e 6     Ncrit =   9.000
  
   alpha    CL        CD       CDp       CM     Top_Xtr  Bot_Xtr
  ------ -------- --------- --------- -------- -------- --------
  -2.000   0.5443   0.04345   0.03659  -0.1233   0.3199   0.0241
  -1.500   0.6203   0.04254   0.03508  -0.1277   0.3133   0.0258
  -1.000   0.6670   0.03726   0.02974  -0.1301   0.3090   0.0276
  -0.500   0.7298   0.03521   0.02733  -0.1323   0.3048   0.0312
   0.000   0.7938   0.03327   0.02494  -0.1342   0.3013   0.0334
   0.500   0.8531   0.03114   0.02244  -0.1362   0.2983   0.0382
   1.000   0.9140   0.02951   0.02052  -0.1373   0.2960   0.0454
   1.500   0.9755   0.02950   0.02009  -0.1370   0.2936   0.0537
   2.000   1.0326   0.02829   0.01863  -0.1378   0.2913   0.0648
   2.500   1.0901   0.02708   0.01712  -0.1385   0.2888   0.0801
