  
       XFOIL         Version 6.99
  
 Calculated polar for: NACA 2114                                       
  
 1 1 Reynolds number fixed          Mach number fixed         
  
 xtrf =   1.000 (top)        1.000 (bottom)  
 Mach =   0.050     Re =     0.200 e 6     Ncrit =   9.000
  
   alpha    CL        CD       CDp       CM     Top_Xtr  Bot_Xtr
  ------ -------- --------- --------- -------- -------- --------
  -2.000   0.0149   0.01388   0.00601  -0.0372   0.8742   0.0956
  -1.500   0.0520   0.01140   0.00499  -0.0334   0.8414   0.4532
  -1.000   0.0893   0.01025   0.00487  -0.0276   0.8031   0.7316
  -0.500   0.1359   0.01014   0.00487  -0.0232   0.7556   0.8388
   0.000   0.1896   0.01044   0.00500  -0.0205   0.7126   0.9025
   0.500   0.2635   0.01102   0.00532  -0.0221   0.6667   0.9435
   1.000   0.3547   0.01152   0.00546  -0.0284   0.6139   0.9669
   1.500   0.4402   0.01184   0.00540  -0.0345   0.5559   0.9832
   2.000   0.5287   0.01215   0.00530  -0.0416   0.4882   0.9972
   2.500   0.5792   0.01246   0.00524  -0.0414   0.4256   1.0000
   3.000   0.6176   0.01297   0.00535  -0.0387   0.3561   1.0000
   3.500   0.6523   0.01380   0.00570  -0.0354   0.2837   1.0000
   4.000   0.6871   0.01470   0.00623  -0.0319   0.2437   1.0000
   4.500   0.7233   0.01557   0.00686  -0.0286   0.2246   1.0000
   5.000   0.7626   0.01629   0.00749  -0.0256   0.2125   1.0000
   5.500   0.8027   0.01721   0.00828  -0.0229   0.2045   1.0000
   6.000   0.8452   0.01801   0.00907  -0.0206   0.1983   1.0000
   6.500   0.8893   0.01910   0.01002  -0.0187   0.1932   1.0000
   7.000   0.9349   0.02014   0.01112  -0.0170   0.1889   1.0000
   7.500   0.9811   0.02115   0.01220  -0.0155   0.1848   1.0000
   8.000   1.0286   0.02231   0.01340  -0.0144   0.1814   1.0000
   8.500   1.0780   0.02377   0.01484  -0.0137   0.1782   1.0000
   9.000   1.1254   0.02550   0.01671  -0.0129   0.1751   1.0000
   9.500   1.1699   0.02697   0.01844  -0.0115   0.1725   1.0000
  10.000   1.2136   0.02865   0.02035  -0.0102   0.1696   1.0000
