  
       XFOIL         Version 6.99
  
 Calculated polar for: NACA 6832                                       
  
 1 1 Reynolds number fixed          Mach number fixed         
  
 xtrf =   1.000 (top)        1.000 (bottom)  
 Mach =   0.050     Re =     0.200 e 6     Ncrit =   9.000
  
   alpha    CL        CD       CDp       CM     Top_Xtr  Bot_Xtr
  ------ -------- --------- --------- -------- -------- --------
  -2.000   0.2600   0.02409   0.01651  -0.1601   0.7156   0.3749
  -1.500   0.3540   0.02341   0.01572  -0.1675   0.7028   0.3894
  -1.000   0.3978   0.02370   0.01603  -0.1662   0.6846   0.4010
  -0.500   0.4704   0.02365   0.01592  -0.1698   0.6701   0.4151
   0.000   0.5299   0.02367   0.01590  -0.1711   0.6545   0.4282
   0.500   0.5798   0.02414   0.01638  -0.1708   0.6390   0.4417
   1.000   0.6551   0.02399   0.01611  -0.1748   0.6254   0.4566
   1.500   0.6885   0.02477   0.01698  -0.1715   0.6101   0.4697
   2.000   0.7661   0.02471   0.01677  -0.1760   0.5973   0.4854
   2.500   0.7922   0.02563   0.01783  -0.1714   0.5828   0.4986
   3.000   0.8620   0.02577   0.01785  -0.1744   0.5705   0.5145
   3.500   0.8895   0.02674   0.01895  -0.1701   0.5570   0.5283
   4.000   0.9564   0.02698   0.01907  -0.1727   0.5452   0.5447
   4.500   0.9810   0.02809   0.02034  -0.1679   0.5325   0.5585
   5.000   1.0492   0.02835   0.02045  -0.1706   0.5211   0.5755
   5.500   1.0649   0.02974   0.02205  -0.1644   0.5091   0.5887
   6.000   1.1325   0.03000   0.02213  -0.1671   0.4983   0.6062
   6.500   1.1425   0.03165   0.02404  -0.1600   0.4870   0.6187
   7.000   1.1968   0.03225   0.02450  -0.1606   0.4765   0.6359
   7.500   1.2143   0.03385   0.02631  -0.1548   0.4660   0.6478
   8.000   1.2534   0.03499   0.02739  -0.1531   0.4558   0.6645
   8.500   1.2823   0.03628   0.02878  -0.1492   0.4461   0.6758
   9.000   1.3009   0.03806   0.03066  -0.1442   0.4359   0.6892
   9.500   1.3516   0.03876   0.03125  -0.1441   0.4268   0.7029
  10.000   1.3460   0.04156   0.03430  -0.1359   0.4170   0.7124
