  
       XFOIL         Version 6.99
  
 Calculated polar for: NACA 9524                                       
  
 1 1 Reynolds number fixed          Mach number fixed         
  
 xtrf =   1.000 (top)        1.000 (bottom)  
 Mach =   0.050     Re =     0.200 e 6     Ncrit =   9.000
  
   alpha    CL        CD       CDp       CM     Top_Xtr  Bot_Xtr
  ------ -------- --------- --------- -------- -------- --------
  -2.000   0.6259   0.02557   0.01748  -0.2080   0.6941   0.2085
  -1.500   0.7329   0.02412   0.01592  -0.2173   0.6916   0.2287
  -1.000   0.7081   0.02650   0.01838  -0.2042   0.6768   0.2362
  -0.500   0.8090   0.02498   0.01673  -0.2120   0.6741   0.2592
   0.000   0.7929   0.02748   0.01944  -0.2011   0.6600   0.2688
   0.500   0.8845   0.02612   0.01802  -0.2071   0.6565   0.2945
   1.000   0.9908   0.02475   0.01654  -0.2160   0.6535   0.3256
   1.500   0.9580   0.02769   0.01965  -0.2022   0.6390   0.3361
   2.000   1.0594   0.02614   0.01807  -0.2099   0.6359   0.3710
   2.500   1.0300   0.02959   0.02164  -0.1974   0.6216   0.3846
   3.000   1.1243   0.02801   0.02010  -0.2037   0.6181   0.4245
   4.000   1.1853   0.03035   0.02264  -0.1974   0.6003   0.4910
   4.500   1.2900   0.02850   0.02084  -0.2053   0.5971   0.5553
   5.000   1.2413   0.03308   0.02576  -0.1909   0.5824   0.5848
   5.500   1.3377   0.03065   0.02376  -0.1966   0.5793   0.7689
   6.000   1.2778   0.03586   0.02934  -0.1811   0.5641   1.0000
   6.500   1.3780   0.03373   0.02689  -0.1876   0.5612   1.0000
   7.500   1.3235   0.04427   0.03763  -0.1692   0.5342   1.0000
   8.500   1.3068   0.05435   0.04780  -0.1579   0.5090   1.0000
   9.000   1.3943   0.05144   0.04473  -0.1613   0.5075   1.0000
   9.500   1.4939   0.04792   0.04103  -0.1662   0.5060   1.0000
  10.000   1.6032   0.04434   0.03722  -0.1726   0.5039   1.0000
