  
       XFOIL         Version 6.99
  
 Calculated polar for: NACA 3810                                       
  
 1 1 Reynolds number fixed          Mach number fixed         
  
 xtrf =   1.000 (top)        1.000 (bottom)  
 Mach =   0.050     Re =     0.200 e 6     Ncrit =   9.000
  
   alpha    CL        CD       CDp       CM     Top_Xtr  Bot_Xtr
  ------ -------- --------- --------- -------- -------- --------
  -2.000   0.0422   0.01562   0.00940  -0.0968   1.0000   0.5390
  -1.500   0.0979   0.01584   0.00985  -0.0969   1.0000   0.6125
  -1.000   0.1499   0.01621   0.01042  -0.0961   1.0000   0.6751
  -0.500   0.1977   0.01675   0.01113  -0.0944   1.0000   0.7253
   0.000   0.2423   0.01745   0.01197  -0.0923   1.0000   0.7662
   0.500   0.3158   0.01821   0.01280  -0.0960   0.9896   0.8033
   1.000   0.4010   0.01852   0.01322  -0.1017   0.9745   0.8358
   1.500   0.4778   0.01816   0.01301  -0.1053   0.9562   0.8658
   2.000   0.5536   0.01725   0.01228  -0.1083   0.9375   0.8955
   2.500   0.6182   0.01575   0.01098  -0.1085   0.9133   0.9280
   3.000   0.6669   0.01391   0.00936  -0.1052   0.8724   1.0000
   3.500   0.7453   0.01187   0.00736  -0.1075   0.7963   1.0000
   4.000   0.8873   0.01118   0.00566  -0.1229   0.6038   1.0000
   4.500   0.9280   0.01262   0.00640  -0.1200   0.4648   1.0000
   5.000   0.9666   0.01431   0.00733  -0.1171   0.3119   1.0000
   5.500   1.0058   0.01663   0.00869  -0.1149   0.1529   1.0000
   6.000   1.0483   0.01881   0.01046  -0.1128   0.0924   1.0000
   6.500   1.0906   0.02090   0.01245  -0.1104   0.0708   1.0000
   7.000   1.1342   0.02312   0.01469  -0.1083   0.0588   1.0000
   7.500   1.1813   0.02602   0.01756  -0.1070   0.0504   1.0000
   8.000   1.2280   0.02807   0.01985  -0.1052   0.0444   1.0000
   8.500   1.2798   0.03232   0.02430  -0.1048   0.0404   1.0000
   9.000   1.3201   0.03542   0.02787  -0.1020   0.0369   1.0000
   9.500   1.3565   0.03929   0.03203  -0.0991   0.0345   1.0000
  10.000   1.3773   0.04743   0.04082  -0.0945   0.0333   1.0000
