  
       XFOIL         Version 6.99
  
 Calculated polar for: NACA 4840                                       
  
 1 1 Reynolds number fixed          Mach number fixed         
  
 xtrf =   1.000 (top)        1.000 (bottom)  
 Mach =   0.050     Re =     0.200 e 6     Ncrit =   9.000
  
   alpha    CL        CD       CDp       CM     Top_Xtr  Bot_Xtr
  ------ -------- --------- --------- -------- -------- --------
  -2.000   0.0004   0.02722   0.01879  -0.0820   0.6018   0.4005
  -1.500   0.0592   0.02706   0.01860  -0.0834   0.5911   0.4090
  -1.000   0.0916   0.02722   0.01869  -0.0808   0.5799   0.4178
  -0.500   0.1290   0.02716   0.01869  -0.0787   0.5690   0.4261
   0.000   0.2014   0.02713   0.01856  -0.0826   0.5592   0.4362
   0.500   0.2121   0.02769   0.01911  -0.0764   0.5483   0.4444
   1.000   0.2706   0.02752   0.01900  -0.0777   0.5391   0.4544
   1.500   0.3074   0.02811   0.01962  -0.0759   0.5293   0.4644
   2.000   0.3409   0.02846   0.01995  -0.0736   0.5195   0.4741
   2.500   0.4207   0.02837   0.01979  -0.0784   0.5109   0.4858
   3.000   0.4230   0.02961   0.02116  -0.0713   0.5013   0.4952
   3.500   0.4686   0.02986   0.02145  -0.0709   0.4927   0.5061
   4.000   0.5327   0.03022   0.02175  -0.0734   0.4846   0.5184
   4.500   0.5366   0.03177   0.02338  -0.0673   0.4753   0.5280
   5.000   0.5903   0.03195   0.02364  -0.0680   0.4676   0.5406
   5.500   0.6300   0.03301   0.02470  -0.0672   0.4597   0.5531
   6.000   0.6381   0.03474   0.02660  -0.0622   0.4509   0.5640
   6.500   0.7020   0.03484   0.02665  -0.0643   0.4441   0.5778
   7.000   0.7141   0.03709   0.02896  -0.0606   0.4360   0.5892
   7.500   0.7247   0.03910   0.03121  -0.0563   0.4277   0.6015
   8.000   0.8015   0.03874   0.03068  -0.0602   0.4217   0.6173
   8.500   0.7688   0.04332   0.03558  -0.0520   0.4127   0.6275
   9.000   0.7932   0.04525   0.03762  -0.0500   0.4053   0.6406
   9.500   0.8854   0.04397   0.03611  -0.0553   0.4003   0.6580
  10.000   0.7716   0.05443   0.04716  -0.0415   0.3881   0.6640
