  
       XFOIL         Version 6.99
  
 Calculated polar for: NACA 8822                                       
  
 1 1 Reynolds number fixed          Mach number fixed         
  
 xtrf =   1.000 (top)        1.000 (bottom)  
 Mach =   0.050     Re =     0.200 e 6     Ncrit =   9.000
  
   alpha    CL        CD       CDp       CM     Top_Xtr  Bot_Xtr
  ------ -------- --------- --------- -------- -------- --------
  -2.000   0.3434   0.04135   0.03457  -0.2139   0.8185   0.3084
  -1.000   0.4963   0.03976   0.03311  -0.2220   0.8032   0.3552
  -0.500   0.5641   0.03917   0.03262  -0.2244   0.7924   0.3785
   0.000   0.6464   0.03779   0.03129  -0.2290   0.7882   0.4042
   0.500   0.7307   0.03610   0.02967  -0.2337   0.7855   0.4306
   1.000   0.7963   0.03534   0.02900  -0.2352   0.7727   0.4546
   1.500   0.8872   0.03328   0.02697  -0.2410   0.7687   0.4820
   2.000   0.9605   0.03218   0.02594  -0.2438   0.7542   0.5067
   2.500   1.0447   0.03061   0.02439  -0.2486   0.7411   0.5321
   3.000   1.1418   0.02858   0.02230  -0.2556   0.7283   0.5579
   3.500   1.2115   0.02797   0.02163  -0.2578   0.7072   0.5791
   4.000   1.2681   0.02808   0.02167  -0.2576   0.6841   0.5990
   4.500   1.3210   0.02849   0.02200  -0.2570   0.6612   0.6197
   5.000   1.3611   0.02888   0.02237  -0.2533   0.6396   0.6332
   5.500   1.4018   0.02967   0.02309  -0.2504   0.6176   0.6503
   6.000   1.4295   0.03061   0.02405  -0.2447   0.5965   0.6627
   6.500   1.4628   0.03164   0.02507  -0.2405   0.5757   0.6774
   7.000   1.4891   0.03266   0.02611  -0.2347   0.5561   0.6887
   7.500   1.5238   0.03372   0.02714  -0.2309   0.5366   0.7028
   8.000   1.5511   0.03470   0.02810  -0.2255   0.5181   0.7136
   8.500   1.5861   0.03581   0.02913  -0.2220   0.4995   0.7274
   9.000   1.6121   0.03700   0.03030  -0.2167   0.4812   0.7392
   9.500   1.6335   0.03871   0.03208  -0.2112   0.4626   0.7514
  10.000   1.6576   0.04050   0.03391  -0.2064   0.4443   0.7646
