  
       XFOIL         Version 6.99
  
 Calculated polar for: NACA 6206                                       
  
 1 1 Reynolds number fixed          Mach number fixed         
  
 xtrf =   1.000 (top)        1.000 (bottom)  
 Mach =   0.050     Re =     0.200 e 6     Ncrit =   9.000
  
   alpha    CL        CD       CDp       CM     Top_Xtr  Bot_Xtr
  ------ -------- --------- --------- -------- -------- --------
  -2.000   0.3403   0.03174   0.02746  -0.1030   0.8127   0.0269
  -1.500   0.4066   0.03056   0.02549  -0.1027   0.7362   0.0319
  -1.000   0.4582   0.02650   0.02043  -0.1023   0.5995   0.0337
  -0.500   0.5026   0.02439   0.01706  -0.1014   0.4198   0.0397
   0.000   0.5588   0.02270   0.01457  -0.1013   0.3702   0.0539
   0.500   0.6166   0.02197   0.01314  -0.1006   0.3510   0.0707
   1.000   0.6725   0.01973   0.01051  -0.1008   0.3392   0.0886
   1.500   0.7274   0.01818   0.00857  -0.1011   0.3305   0.1642
   2.000   0.7858   0.01731   0.00718  -0.0988   0.3235   0.0666
   2.500   0.8401   0.01686   0.00656  -0.0983   0.3179   0.0842
   3.000   0.8943   0.01668   0.00635  -0.0983   0.3130   0.1262
   3.500   0.9444   0.01572   0.00655  -0.0974   0.3091   1.0000
   4.000   0.9980   0.01646   0.00714  -0.0972   0.3054   1.0000
   4.500   1.0512   0.01719   0.00787  -0.0970   0.3011   1.0000
   5.000   1.1044   0.01806   0.00867  -0.0969   0.2978   1.0000
   5.500   1.1580   0.01919   0.00975  -0.0970   0.2950   1.0000
   6.000   1.2104   0.02025   0.01106  -0.0969   0.2927   1.0000
   6.500   1.2620   0.02128   0.01236  -0.0966   0.2895   1.0000
   7.000   1.3134   0.02248   0.01384  -0.0964   0.2867   1.0000
   7.500   1.3645   0.02370   0.01534  -0.0961   0.2829   1.0000
   8.000   1.4058   0.02254   0.01417  -0.0940   0.2552   1.0000
   9.000   1.4413   0.02662   0.01796  -0.0835   0.0186   1.0000
   9.500   1.4468   0.03064   0.02253  -0.0773   0.0160   1.0000
  10.000   1.4277   0.03551   0.02776  -0.0692   0.0153   1.0000
