  
       XFOIL         Version 6.99
  
 Calculated polar for: NACA 8122                                       
  
 1 1 Reynolds number fixed          Mach number fixed         
  
 xtrf =   1.000 (top)        1.000 (bottom)  
 Mach =   0.050     Re =     0.200 e 6     Ncrit =   9.000
  
   alpha    CL        CD       CDp       CM     Top_Xtr  Bot_Xtr
  ------ -------- --------- --------- -------- -------- --------
  -2.000   0.5141   0.03551   0.02846  -0.0833   0.4414   0.0264
  -1.500   0.5357   0.03507   0.02756  -0.0763   0.4005   0.0283
  -1.000   0.5382   0.03386   0.02593  -0.0670   0.3460   0.0288
  -0.500   0.5286   0.03382   0.02522  -0.0569   0.2532   0.0295
   1.000   0.5918   0.03484   0.02508  -0.0424   0.1812   0.0326
   1.500   0.6211   0.03509   0.02510  -0.0394   0.1766   0.0344
   2.000   0.6512   0.03619   0.02592  -0.0362   0.1733   0.0358
   2.500   0.6873   0.03599   0.02563  -0.0344   0.1709   0.0381
   3.000   0.7238   0.03648   0.02598  -0.0325   0.1689   0.0403
   3.500   0.7611   0.03720   0.02655  -0.0307   0.1671   0.0437
   4.000   0.7999   0.03766   0.02690  -0.0293   0.1655   0.0482
   5.000   0.8862   0.03901   0.02794  -0.0275   0.1623   0.0706
   5.500   0.9367   0.03879   0.02784  -0.0279   0.1610   0.1023
   6.000   0.9797   0.03935   0.02855  -0.0277   0.1604   0.1243
   6.500   1.0212   0.04061   0.02972  -0.0272   0.1599   0.1376
   7.000   1.0611   0.04216   0.03124  -0.0264   0.1593   0.1564
   7.500   1.0978   0.04410   0.03313  -0.0254   0.1589   0.1252
   8.000   1.1320   0.04622   0.03530  -0.0244   0.1584   0.1058
   8.500   1.1642   0.04845   0.03756  -0.0235   0.1581   0.1009
   9.000   1.1925   0.05099   0.04015  -0.0226   0.1578   0.0985
   9.500   1.2164   0.05389   0.04311  -0.0216   0.1576   0.1031
  10.000   1.2302   0.05551   0.04669  -0.0194   0.1575   1.0000
