  
       XFOIL         Version 6.99
  
 Calculated polar for: NACA 4224                                       
  
 1 1 Reynolds number fixed          Mach number fixed         
  
 xtrf =   1.000 (top)        1.000 (bottom)  
 Mach =   0.050     Re =     0.200 e 6     Ncrit =   9.000
  
   alpha    CL        CD       CDp       CM     Top_Xtr  Bot_Xtr
  ------ -------- --------- --------- -------- -------- --------
  -2.000   0.1633   0.01497   0.00757  -0.0577   0.5899   0.5010
  -1.500   0.2036   0.01492   0.00762  -0.0541   0.5673   0.5754
  -1.000   0.2463   0.01499   0.00767  -0.0511   0.5436   0.6229
  -0.500   0.2889   0.01510   0.00780  -0.0479   0.5191   0.6635
   0.000   0.3306   0.01530   0.00789  -0.0448   0.4942   0.7007
   0.500   0.3717   0.01556   0.00811  -0.0415   0.4696   0.7362
   1.000   0.4098   0.01591   0.00838  -0.0377   0.4451   0.7758
   1.500   0.4475   0.01636   0.00882  -0.0337   0.4212   0.8118
   2.000   0.4822   0.01692   0.00931  -0.0291   0.4004   0.8527
   2.500   0.5202   0.01771   0.01001  -0.0249   0.3826   0.8909
   3.500   0.6379   0.01963   0.01162  -0.0262   0.3545   0.9446
   4.000   0.7229   0.02080   0.01256  -0.0325   0.3440   0.9605
   4.500   0.8181   0.02185   0.01345  -0.0412   0.3346   0.9701
   5.000   0.9109   0.02294   0.01436  -0.0495   0.3271   0.9807
   5.500   0.9976   0.02384   0.01522  -0.0568   0.3209   0.9922
   6.000   1.0856   0.02470   0.01593  -0.0645   0.3157   1.0000
   6.500   1.1152   0.02541   0.01650  -0.0611   0.3119   1.0000
   7.000   1.1047   0.02573   0.01692  -0.0501   0.3093   1.0000
   7.500   1.1090   0.02628   0.01753  -0.0417   0.3065   1.0000
   8.000   1.1279   0.02704   0.01830  -0.0361   0.3036   1.0000
   8.500   1.1582   0.02791   0.01914  -0.0326   0.3006   1.0000
   9.000   1.2045   0.02891   0.02003  -0.0319   0.2975   1.0000
   9.500   1.2462   0.03042   0.02155  -0.0309   0.2945   1.0000
  10.000   1.2606   0.03187   0.02317  -0.0256   0.2923   1.0000
  -2.000   0.1633   0.01497   0.00757  -0.0577   0.5899   0.5010
  -1.500   0.2036   0.01492   0.00762  -0.0541   0.5673   0.5754
  -1.000   0.2463   0.01499   0.00767  -0.0511   0.5436   0.6229
  -0.500   0.2889   0.01510   0.00780  -0.0479   0.5191   0.6635
   0.000   0.3306   0.01530   0.00789  -0.0448   0.4942   0.7007
   0.500   0.3717   0.01556   0.00811  -0.0415   0.4696   0.7362
   1.000   0.4098   0.01591   0.00838  -0.0377   0.4451   0.7758
   1.500   0.4475   0.01636   0.00882  -0.0337   0.4212   0.8118
   2.000   0.4822   0.01692   0.00931  -0.0291   0.4004   0.8527
   2.500   0.5202   0.01771   0.01001  -0.0249   0.3826   0.8909
   3.500   0.6379   0.01963   0.01162  -0.0262   0.3545   0.9446
   4.000   0.7229   0.02080   0.01256  -0.0325   0.3440   0.9605
   4.500   0.8181   0.02185   0.01345  -0.0412   0.3346   0.9701
   5.000   0.9109   0.02294   0.01436  -0.0495   0.3271   0.9807
   5.500   0.9976   0.02384   0.01522  -0.0568   0.3209   0.9922
   6.000   1.0856   0.02470   0.01593  -0.0645   0.3157   1.0000
   6.500   1.1152   0.02541   0.01650  -0.0611   0.3119   1.0000
   7.000   1.1047   0.02573   0.01692  -0.0501   0.3093   1.0000
   7.500   1.1090   0.02628   0.01753  -0.0417   0.3065   1.0000
   8.000   1.1279   0.02704   0.01830  -0.0361   0.3036   1.0000
   8.500   1.1582   0.02791   0.01914  -0.0326   0.3006   1.0000
   9.000   1.2045   0.02891   0.02003  -0.0319   0.2975   1.0000
   9.500   1.2462   0.03042   0.02155  -0.0309   0.2945   1.0000
  10.000   1.2606   0.03187   0.02317  -0.0256   0.2923   1.0000
  -2.000   0.1633   0.01497   0.00757  -0.0577   0.5899   0.5010
  -1.500   0.2036   0.01492   0.00762  -0.0541   0.5673   0.5754
  -1.000   0.2463   0.01499   0.00767  -0.0511   0.5436   0.6229
  -0.500   0.2889   0.01510   0.00780  -0.0479   0.5191   0.6635
   0.000   0.3306   0.01530   0.00789  -0.0448   0.4942   0.7007
   0.500   0.3717   0.01556   0.00811  -0.0415   0.4696   0.7362
   1.000   0.4098   0.01591   0.00838  -0.0377   0.4451   0.7758
   1.500   0.4475   0.01636   0.00882  -0.0337   0.4212   0.8118
   2.000   0.4822   0.01692   0.00931  -0.0291   0.4004   0.8527
   2.500   0.5202   0.01771   0.01001  -0.0249   0.3826   0.8909
   3.500   0.6379   0.01963   0.01162  -0.0262   0.3545   0.9446
   4.000   0.7229   0.02080   0.01256  -0.0325   0.3440   0.9605
   4.500   0.8181   0.02185   0.01345  -0.0412   0.3346   0.9701
   5.000   0.9109   0.02294   0.01436  -0.0495   0.3271   0.9807
   5.500   0.9976   0.02384   0.01522  -0.0568   0.3209   0.9922
   6.000   1.0856   0.02470   0.01593  -0.0645   0.3157   1.0000
   6.500   1.1152   0.02541   0.01650  -0.0611   0.3119   1.0000
   7.000   1.1047   0.02573   0.01692  -0.0501   0.3093   1.0000
   7.500   1.1090   0.02628   0.01753  -0.0417   0.3065   1.0000
   8.000   1.1279   0.02704   0.01830  -0.0361   0.3036   1.0000
   8.500   1.1582   0.02791   0.01914  -0.0326   0.3006   1.0000
   9.000   1.2045   0.02891   0.02003  -0.0319   0.2975   1.0000
   9.500   1.2462   0.03042   0.02155  -0.0309   0.2945   1.0000
  10.000   1.2606   0.03187   0.02317  -0.0256   0.2923   1.0000
