  
       XFOIL         Version 6.99
  
 Calculated polar for: NACA 9716                                       
  
 1 1 Reynolds number fixed          Mach number fixed         
  
 xtrf =   1.000 (top)        1.000 (bottom)  
 Mach =   0.050     Re =     0.200 e 6     Ncrit =   9.000
  
   alpha    CL        CD       CDp       CM     Top_Xtr  Bot_Xtr
  ------ -------- --------- --------- -------- -------- --------
  -2.000   0.4124   0.05222   0.04527  -0.2319   0.8524   0.1953
  -1.000   0.5369   0.05193   0.04514  -0.2356   0.8277   0.2549
  -0.500   0.6178   0.05178   0.04504  -0.2404   0.8237   0.2938
   0.500   0.7344   0.05156   0.04503  -0.2420   0.8016   0.3647
   1.000   0.8054   0.05100   0.04457  -0.2447   0.7955   0.4048
   1.500   0.8836   0.05008   0.04374  -0.2483   0.7931   0.4465
   2.000   0.9321   0.04974   0.04349  -0.2470   0.7797   0.4817
   3.000   1.0491   0.04816   0.04218  -0.2472   0.7618   0.5510
   3.500   1.1000   0.04749   0.04165  -0.2459   0.7499   0.5811
   4.500   1.2172   0.04507   0.03945  -0.2451   0.7330   0.6368
   5.000   1.2633   0.04443   0.03892  -0.2426   0.7192   0.6594
   5.500   1.3162   0.04343   0.03801  -0.2413   0.7070   0.6823
   6.000   1.3940   0.04078   0.03540  -0.2438   0.7017   0.7092
   6.500   1.4644   0.03873   0.03341  -0.2453   0.6879   0.7315
   7.000   1.5481   0.03609   0.03073  -0.2491   0.6716   0.7566
   7.500   1.6323   0.03369   0.02823  -0.2533   0.6491   0.7792
   8.000   1.6803   0.03386   0.02834  -0.2518   0.6178   0.7993
   8.500   1.7216   0.03448   0.02883  -0.2493   0.5861   0.8185
   9.000   1.7483   0.03596   0.03024  -0.2446   0.5539   0.8366
   9.500   1.7681   0.03787   0.03213  -0.2389   0.5223   0.8551
  10.000   1.7884   0.03976   0.03396  -0.2335   0.4915   0.8773
