  
       XFOIL         Version 6.99
  
 Calculated polar for: NACA 2430                                       
  
 1 1 Reynolds number fixed          Mach number fixed         
  
 xtrf =   1.000 (top)        1.000 (bottom)  
 Mach =   0.050     Re =     0.200 e 6     Ncrit =   9.000
  
   alpha    CL        CD       CDp       CM     Top_Xtr  Bot_Xtr
  ------ -------- --------- --------- -------- -------- --------
  -2.000   0.0061   0.01879   0.01051  -0.0474   0.6081   0.4539
  -1.500   0.0559   0.01870   0.01034  -0.0463   0.5956   0.4739
  -1.000   0.0921   0.01870   0.01042  -0.0426   0.5825   0.4943
  -0.500   0.1441   0.01874   0.01035  -0.0419   0.5710   0.5171
   0.000   0.1794   0.01878   0.01058  -0.0380   0.5590   0.5393
   0.500   0.2330   0.01884   0.01060  -0.0375   0.5481   0.5638
   1.000   0.2687   0.01897   0.01092  -0.0338   0.5368   0.5872
   1.500   0.3201   0.01906   0.01099  -0.0328   0.5265   0.6122
   2.000   0.3584   0.01931   0.01139  -0.0296   0.5159   0.6365
   2.500   0.4054   0.01944   0.01153  -0.0279   0.5057   0.6615
   3.000   0.4481   0.01979   0.01194  -0.0256   0.4959   0.6866
   3.500   0.4879   0.01999   0.01221  -0.0226   0.4858   0.7120
   4.000   0.5385   0.02040   0.01262  -0.0217   0.4766   0.7378
   4.500   0.5667   0.02071   0.01312  -0.0166   0.4666   0.7630
   5.000   0.6327   0.02118   0.01350  -0.0184   0.4575   0.7884
   5.500   0.6400   0.02164   0.01423  -0.0097   0.4483   0.8156
   6.000   0.6891   0.02207   0.01463  -0.0083   0.4395   0.8418
   6.500   0.7158   0.02295   0.01565  -0.0033   0.4305   0.8697
   7.000   0.7542   0.02366   0.01638  -0.0003   0.4215   0.8965
   7.500   0.8037   0.02469   0.01740   0.0004   0.4128   0.9200
   8.000   0.8534   0.02589   0.01864   0.0002   0.4030   0.9410
   8.500   0.9285   0.02703   0.01969  -0.0046   0.3939   0.9558
   9.000   0.9924   0.02843   0.02113  -0.0087   0.3836   0.9692
   9.500   1.0692   0.02965   0.02230  -0.0148   0.3742   0.9786
  10.000   1.1309   0.03102   0.02370  -0.0190   0.3644   0.9910
