  
       XFOIL         Version 6.99
  
 Calculated polar for: NACA 7220                                       
  
 1 1 Reynolds number fixed          Mach number fixed         
  
 xtrf =   1.000 (top)        1.000 (bottom)  
 Mach =   0.050     Re =     0.200 e 6     Ncrit =   9.000
  
   alpha    CL        CD       CDp       CM     Top_Xtr  Bot_Xtr
  ------ -------- --------- --------- -------- -------- --------
  -2.000   0.4438   0.02944   0.02173  -0.1046   0.4745   0.1103
  -1.500   0.4714   0.02820   0.01992  -0.0996   0.4272   0.1203
  -1.000   0.4990   0.02712   0.01835  -0.0947   0.3874   0.1323
  -0.500   0.5425   0.02509   0.01541  -0.0895   0.3631   0.0881
   0.000   0.5807   0.02418   0.01406  -0.0859   0.3475   0.0879
   0.500   0.6244   0.02352   0.01301  -0.0833   0.3364   0.0899
   1.000   0.6710   0.02327   0.01268  -0.0819   0.3279   0.0962
   1.500   0.7178   0.02303   0.01236  -0.0804   0.3211   0.1023
   2.000   0.7720   0.02317   0.01231  -0.0804   0.3155   0.1113
   2.500   0.8217   0.02326   0.01245  -0.0797   0.3116   0.1229
   3.000   0.8713   0.02346   0.01270  -0.0790   0.3079   0.1382
   3.500   0.9228   0.02375   0.01297  -0.0789   0.3046   0.1613
   4.000   0.9824   0.02256   0.01376  -0.0799   0.3015   1.0000
   4.500   1.0442   0.02368   0.01450  -0.0816   0.2983   1.0000
   5.000   1.0935   0.02471   0.01542  -0.0813   0.2959   1.0000
   5.500   1.1364   0.02568   0.01637  -0.0798   0.2939   1.0000
   6.000   1.1808   0.02676   0.01743  -0.0787   0.2919   1.0000
   6.500   1.2251   0.02793   0.01858  -0.0778   0.2899   1.0000
   7.000   1.2691   0.02917   0.01981  -0.0770   0.2881   1.0000
   7.500   1.3130   0.03049   0.02112  -0.0762   0.2863   1.0000
   8.000   1.3575   0.03188   0.02249  -0.0757   0.2846   1.0000
   8.500   1.4071   0.03340   0.02396  -0.0761   0.2826   1.0000
   9.000   1.4621   0.03583   0.02638  -0.0779   0.2806   1.0000
   9.500   1.4812   0.03778   0.02852  -0.0738   0.2797   1.0000
  10.000   1.4925   0.04009   0.03106  -0.0691   0.2788   1.0000
