  
       XFOIL         Version 6.99
  
 Calculated polar for: NACA 6614                                       
  
 1 1 Reynolds number fixed          Mach number fixed         
  
 xtrf =   1.000 (top)        1.000 (bottom)  
 Mach =   0.050     Re =     0.200 e 6     Ncrit =   9.000
  
   alpha    CL        CD       CDp       CM     Top_Xtr  Bot_Xtr
  ------ -------- --------- --------- -------- -------- --------
  -2.000   0.3364   0.02740   0.02015  -0.1702   0.8552   0.2708
  -1.500   0.4160   0.02685   0.01974  -0.1745   0.8519   0.3236
  -1.000   0.4618   0.02712   0.02017  -0.1730   0.8397   0.3674
  -0.500   0.5403   0.02642   0.01962  -0.1768   0.8362   0.4247
   0.500   0.6665   0.02568   0.01920  -0.1787   0.8203   0.5309
   1.500   0.7940   0.02444   0.01824  -0.1801   0.8044   0.6310
   2.000   0.8762   0.02271   0.01667  -0.1836   0.8027   0.6827
   3.000   0.9816   0.02118   0.01562  -0.1806   0.7786   0.8019
   3.500   1.0566   0.01908   0.01372  -0.1826   0.7730   1.0000
   5.000   1.2507   0.01652   0.01108  -0.1850   0.7259   1.0000
   5.500   1.3045   0.01612   0.01065  -0.1838   0.6995   1.0000
   6.000   1.3510   0.01608   0.01053  -0.1813   0.6645   1.0000
   6.500   1.3972   0.01628   0.01051  -0.1788   0.6227   1.0000
   7.000   1.4324   0.01709   0.01110  -0.1747   0.5785   1.0000
   7.500   1.4625   0.01821   0.01202  -0.1698   0.5368   1.0000
   8.000   1.4837   0.01960   0.01329  -0.1637   0.4967   1.0000
   8.500   1.5016   0.02120   0.01479  -0.1574   0.4562   1.0000
   9.000   1.5162   0.02308   0.01652  -0.1508   0.4149   1.0000
   9.500   1.5282   0.02526   0.01859  -0.1443   0.3708   1.0000
  10.000   1.5364   0.02785   0.02103  -0.1378   0.3249   1.0000
