  
       XFOIL         Version 6.99
  
 Calculated polar for: NACA 6522                                       
  
 1 1 Reynolds number fixed          Mach number fixed         
  
 xtrf =   1.000 (top)        1.000 (bottom)  
 Mach =   0.050     Re =     0.200 e 6     Ncrit =   9.000
  
   alpha    CL        CD       CDp       CM     Top_Xtr  Bot_Xtr
  ------ -------- --------- --------- -------- -------- --------
  -2.000   0.4431   0.01892   0.01103  -0.1602   0.7328   0.3013
  -1.500   0.5163   0.01838   0.01046  -0.1634   0.7248   0.3279
  -1.000   0.5574   0.01849   0.01065  -0.1606   0.7123   0.3514
  -0.500   0.6319   0.01807   0.01016  -0.1640   0.7041   0.3830
   0.000   0.6700   0.01825   0.01044  -0.1607   0.6911   0.4099
   0.500   0.7420   0.01793   0.01014  -0.1637   0.6825   0.4453
   1.000   0.7804   0.01809   0.01044  -0.1604   0.6695   0.4777
   1.500   0.8363   0.01811   0.01051  -0.1604   0.6591   0.5178
   2.000   0.8892   0.01807   0.01057  -0.1598   0.6476   0.5631
   3.000   0.9940   0.01804   0.01089  -0.1583   0.6256   0.6873
   3.500   1.0190   0.01817   0.01150  -0.1521   0.6130   0.8028
   4.000   1.0894   0.01808   0.01143  -0.1545   0.6027   1.0000
   4.500   1.1222   0.01858   0.01184  -0.1506   0.5900   1.0000
   5.000   1.1634   0.01914   0.01230  -0.1482   0.5785   1.0000
   5.500   1.2190   0.01945   0.01243  -0.1484   0.5672   1.0000
   6.000   1.2433   0.02031   0.01330  -0.1431   0.5545   1.0000
   6.500   1.2975   0.02075   0.01360  -0.1432   0.5436   1.0000
   7.000   1.3271   0.02154   0.01437  -0.1390   0.5311   1.0000
   7.500   1.3586   0.02248   0.01532  -0.1354   0.5190   1.0000
   8.000   1.4183   0.02282   0.01547  -0.1364   0.5079   1.0000
   8.500   1.4271   0.02426   0.01703  -0.1294   0.4948   1.0000
   9.000   1.4608   0.02529   0.01804  -0.1265   0.4830   1.0000
   9.500   1.5033   0.02601   0.01867  -0.1250   0.4712   1.0000
  10.000   1.5134   0.02784   0.02063  -0.1190   0.4582   1.0000
