  
       XFOIL         Version 6.99
  
 Calculated polar for: NACA 7810                                       
  
 1 1 Reynolds number fixed          Mach number fixed         
  
 xtrf =   1.000 (top)        1.000 (bottom)  
 Mach =   0.050     Re =     0.200 e 6     Ncrit =   9.000
  
   alpha    CL        CD       CDp       CM     Top_Xtr  Bot_Xtr
  ------ -------- --------- --------- -------- -------- --------
  -2.000   0.2952   0.03722   0.03060  -0.1973   0.9993   0.2257
  -1.500   0.3678   0.03854   0.03217  -0.2020   0.9983   0.3099
  -1.000   0.4390   0.04008   0.03389  -0.2061   0.9967   0.3902
  -0.500   0.5108   0.04196   0.03596  -0.2102   0.9954   0.4634
   0.000   0.5662   0.04323   0.03741  -0.2111   0.9886   0.5226
   0.500   0.6219   0.04469   0.03907  -0.2119   0.9796   0.5747
   1.500   0.7541   0.04601   0.04070  -0.2159   0.9453   0.6600
   3.000   0.9527   0.04335   0.03843  -0.2189   0.8965   0.7379
   3.500   1.0176   0.04184   0.03710  -0.2194   0.8837   0.7580
   4.000   1.0705   0.03970   0.03515  -0.2176   0.8623   0.7779
   4.500   1.1130   0.03749   0.03314  -0.2136   0.8267   0.7977
   5.000   1.1703   0.03493   0.03078  -0.2116   0.7877   0.8162
   5.500   1.3325   0.02581   0.02136  -0.2277   0.6976   0.8409
   6.000   1.3796   0.02588   0.02045  -0.2247   0.5264   0.8560
   6.500   1.3872   0.02853   0.02215  -0.2154   0.3616   0.8688
   7.000   1.3951   0.03201   0.02428  -0.2072   0.1547   0.8803
   7.500   1.4168   0.03489   0.02665  -0.2013   0.0836   0.8920
   8.000   1.4427   0.03733   0.02906  -0.1962   0.0644   0.9036
   8.500   1.4693   0.03978   0.03160  -0.1912   0.0537   0.9149
   9.000   1.4974   0.04248   0.03444  -0.1864   0.0470   0.9258
   9.500   1.5361   0.04539   0.03731  -0.1837   0.0407   0.9373
