  
       XFOIL         Version 6.99
  
 Calculated polar for: NACA 7636                                       
  
 1 1 Reynolds number fixed          Mach number fixed         
  
 xtrf =   1.000 (top)        1.000 (bottom)  
 Mach =   0.050     Re =     0.200 e 6     Ncrit =   9.000
  
   alpha    CL        CD       CDp       CM     Top_Xtr  Bot_Xtr
  ------ -------- --------- --------- -------- -------- --------
  -2.000   0.1049   0.03343   0.02538  -0.1180   0.6464   0.3182
  -1.000   0.1223   0.03730   0.02927  -0.1076   0.6152   0.3331
  -0.500   0.2088   0.03558   0.02752  -0.1123   0.6124   0.3453
   0.000   0.3097   0.03324   0.02512  -0.1192   0.6102   0.3586
   0.500   0.4182   0.03121   0.02291  -0.1274   0.6074   0.3733
   1.000   0.4087   0.03381   0.02566  -0.1196   0.5920   0.3811
   1.500   0.5144   0.03190   0.02361  -0.1273   0.5883   0.3968
   2.000   0.4990   0.03507   0.02689  -0.1189   0.5733   0.4048
   2.500   0.5977   0.03336   0.02512  -0.1255   0.5690   0.4209
   3.500   0.6667   0.03568   0.02752  -0.1222   0.5496   0.4458
   4.500   0.7238   0.03885   0.03079  -0.1177   0.5304   0.4717
   5.000   0.8276   0.03694   0.02867  -0.1249   0.5264   0.4913
   5.500   0.7699   0.04299   0.03505  -0.1125   0.5113   0.4987
   6.000   0.8665   0.04111   0.03300  -0.1184   0.5075   0.5188
   6.500   0.8017   0.04852   0.04070  -0.1063   0.4919   0.5261
   7.000   0.8930   0.04651   0.03863  -0.1112   0.4886   0.5470
   7.500   1.0013   0.04389   0.03588  -0.1183   0.4854   0.5689
   8.000   0.6546   0.07522   0.06793  -0.0838   0.4427   0.5507
   8.500   0.7437   0.07182   0.06456  -0.0870   0.4430   0.5727
   9.000   0.8426   0.06790   0.06056  -0.0912   0.4434   0.5961
   9.500   0.9625   0.06260   0.05510  -0.0976   0.4442   0.6221
