  
       XFOIL         Version 6.99
  
 Calculated polar for: NACA 6140                                       
  
 1 1 Reynolds number fixed          Mach number fixed         
  
 xtrf =   1.000 (top)        1.000 (bottom)  
 Mach =   0.050     Re =     0.200 e 6     Ncrit =   9.000
  
   alpha    CL        CD       CDp       CM     Top_Xtr  Bot_Xtr
  ------ -------- --------- --------- -------- -------- --------
  -2.000   0.1903   0.02678   0.01763  -0.0209   0.4868   0.3106
  -1.500   0.1979   0.02635   0.01731  -0.0132   0.4794   0.3599
  -1.000   0.1866   0.02670   0.01787  -0.0027   0.4715   0.3932
  -0.500   0.1890   0.02696   0.01831   0.0052   0.4631   0.4291
   0.000   0.2444   0.02683   0.01814   0.0048   0.4556   0.4711
   0.500   0.2216   0.02809   0.01965   0.0157   0.4470   0.4907
   1.000   0.2620   0.02822   0.01981   0.0174   0.4395   0.5232
   1.500   0.2779   0.02931   0.02099   0.0219   0.4315   0.5468
   2.000   0.2932   0.03032   0.02210   0.0263   0.4230   0.5683
   2.500   0.3514   0.03040   0.02211   0.0252   0.4155   0.5949
   3.000   0.3326   0.03266   0.02464   0.0330   0.4062   0.6111
   3.500   0.4010   0.03223   0.02406   0.0305   0.3988   0.6368
   4.000   0.3723   0.03546   0.02756   0.0384   0.3894   0.6546
   4.500   0.4261   0.03541   0.02747   0.0375   0.3819   0.6797
   5.000   0.4098   0.03878   0.03111   0.0430   0.3724   0.6997
   5.500   0.4556   0.03907   0.03137   0.0429   0.3646   0.7282
   6.000   0.4378   0.04317   0.03570   0.0476   0.3552   0.7515
   6.500   0.4775   0.04402   0.03657   0.0476   0.3484   0.7784
   7.000   0.4645   0.04845   0.04128   0.0513   0.3399   0.8028
   7.500   0.4897   0.05037   0.04329   0.0523   0.3328   0.8310
   8.000   0.4729   0.05558   0.04874   0.0559   0.3241   0.8592
   8.500   0.4958   0.05791   0.05111   0.0570   0.3170   0.8906
   9.000   0.4427   0.06730   0.06082   0.0612   0.3055   0.9169
   9.500   0.5283   0.06612   0.05940   0.0568   0.3010   0.9432
  10.000   0.4972   0.07670   0.07022   0.0552   0.2885   0.9567
