  
       XFOIL         Version 6.99
  
 Calculated polar for: NACA 6708                                       
  
 1 1 Reynolds number fixed          Mach number fixed         
  
 xtrf =   1.000 (top)        1.000 (bottom)  
 Mach =   0.050     Re =     0.200 e 6     Ncrit =   9.000
  
   alpha    CL        CD       CDp       CM     Top_Xtr  Bot_Xtr
  ------ -------- --------- --------- -------- -------- --------
  -2.000   0.2114   0.02751   0.02033  -0.1602   1.0000   0.1225
  -1.500   0.2842   0.02782   0.02103  -0.1650   1.0000   0.2389
  -1.000   0.3456   0.02849   0.02201  -0.1673   1.0000   0.3635
  -0.500   0.4018   0.02935   0.02314  -0.1684   1.0000   0.4710
   0.000   0.4529   0.03038   0.02442  -0.1683   1.0000   0.5618
   1.000   0.5968   0.03300   0.02730  -0.1758   0.9759   0.6989
   1.500   0.6955   0.03307   0.02743  -0.1836   0.9490   0.7500
   2.000   0.7741   0.03309   0.02760  -0.1879   0.9349   0.7917
   2.500   0.8346   0.03265   0.02735  -0.1886   0.9169   0.8311
   3.500   0.9734   0.03091   0.02611  -0.1927   0.8870   1.0000
   4.000   1.0851   0.02644   0.02185  -0.1999   0.8615   1.0000
   5.000   1.2613   0.01651   0.01048  -0.2015   0.4803   1.0000
   5.500   1.2373   0.02162   0.01343  -0.1873   0.1431   1.0000
   6.000   1.2580   0.02488   0.01610  -0.1809   0.0615   1.0000
   6.500   1.2867   0.02739   0.01862  -0.1759   0.0472   1.0000
   7.000   1.3205   0.03020   0.02153  -0.1717   0.0391   1.0000
   7.500   1.3932   0.03469   0.02603  -0.1740   0.0329   1.0000
   8.000   1.4545   0.03797   0.02980  -0.1742   0.0290   1.0000
   8.500   1.5355   0.04645   0.03923  -0.1774   0.0285   1.0000
   9.000   1.5602   0.05937   0.05357  -0.1690   0.0368   1.0000
   9.500   1.4481   0.05658   0.05127  -0.1404   0.0317   1.0000
