  
       XFOIL         Version 6.99
  
 Calculated polar for: NACA 7314                                       
  
 1 1 Reynolds number fixed          Mach number fixed         
  
 xtrf =   1.000 (top)        1.000 (bottom)  
 Mach =   0.050     Re =     0.200 e 6     Ncrit =   9.000
  
   alpha    CL        CD       CDp       CM     Top_Xtr  Bot_Xtr
  ------ -------- --------- --------- -------- -------- --------
  -2.000   0.5169   0.01965   0.01184  -0.1431   0.6328   0.0772
  -1.500   0.5670   0.01802   0.00953  -0.1416   0.5947   0.0840
  -1.000   0.6165   0.01757   0.00861  -0.1401   0.5589   0.0929
  -0.500   0.6659   0.01712   0.00786  -0.1388   0.5298   0.1045
   0.000   0.7165   0.01690   0.00743  -0.1378   0.5072   0.1197
   0.500   0.7684   0.01680   0.00717  -0.1371   0.4908   0.1394
   1.000   0.8213   0.01681   0.00713  -0.1367   0.4782   0.1668
   1.500   0.8743   0.01686   0.00716  -0.1365   0.4673   0.2070
   2.000   0.9243   0.01530   0.00741  -0.1355   0.4584   1.0000
   2.500   0.9788   0.01590   0.00765  -0.1353   0.4509   1.0000
   3.000   1.0334   0.01659   0.00812  -0.1354   0.4445   1.0000
   3.500   1.0860   0.01719   0.00861  -0.1351   0.4377   1.0000
   4.000   1.1414   0.01792   0.00915  -0.1355   0.4322   1.0000
   4.500   1.1945   0.01871   0.00991  -0.1354   0.4275   1.0000
   5.000   1.2456   0.01942   0.01063  -0.1351   0.4221   1.0000
   5.500   1.2992   0.02018   0.01132  -0.1352   0.4172   1.0000
   6.000   1.3554   0.02125   0.01231  -0.1360   0.4131   1.0000
   6.500   1.4014   0.02210   0.01333  -0.1348   0.4088   1.0000
   7.000   1.4498   0.02299   0.01432  -0.1342   0.4039   1.0000
   7.500   1.5022   0.02396   0.01530  -0.1344   0.4000   1.0000
   8.000   1.5561   0.02528   0.01662  -0.1350   0.3960   1.0000
   8.500   1.5947   0.02639   0.01803  -0.1328   0.3916   1.0000
   9.000   1.6370   0.02762   0.01945  -0.1314   0.3873   1.0000
   9.500   1.6852   0.02872   0.02064  -0.1310   0.3831   1.0000
  10.000   1.7361   0.03034   0.02233  -0.1314   0.3792   1.0000
