  
       XFOIL         Version 6.99
  
 Calculated polar for: NACA 3804                                       
  
 1 1 Reynolds number fixed          Mach number fixed         
  
 xtrf =   1.000 (top)        1.000 (bottom)  
 Mach =   0.050     Re =     0.200 e 6     Ncrit =   9.000
  
   alpha    CL        CD       CDp       CM     Top_Xtr  Bot_Xtr
  ------ -------- --------- --------- -------- -------- --------
  -2.000   0.1583   0.01188   0.00630  -0.1199   1.0000   0.6819
  -1.500   0.2019   0.01215   0.00660  -0.1162   1.0000   0.8046
  -1.000   0.2484   0.01214   0.00655  -0.1137   1.0000   0.8647
  -0.500   0.2919   0.01179   0.00624  -0.1107   1.0000   0.9216
   0.000   0.3350   0.01175   0.00620  -0.1084   1.0000   1.0000
   0.500   0.3960   0.01207   0.00653  -0.1102   1.0000   1.0000
   1.000   0.4548   0.01243   0.00697  -0.1114   1.0000   1.0000
   1.500   0.5118   0.01282   0.00756  -0.1122   1.0000   1.0000
   2.000   0.5817   0.01322   0.00851  -0.1156   0.9947   1.0000
   2.500   0.7310   0.01743   0.00901  -0.1304   0.0234   1.0000
   3.000   0.7932   0.02225   0.01418  -0.1297   0.0230   1.0000
