  
       XFOIL         Version 6.99
  
 Calculated polar for: NACA 8206                                       
  
 1 1 Reynolds number fixed          Mach number fixed         
  
 xtrf =   1.000 (top)        1.000 (bottom)  
 Mach =   0.050     Re =     0.200 e 6     Ncrit =   9.000
  
   alpha    CL        CD       CDp       CM     Top_Xtr  Bot_Xtr
  ------ -------- --------- --------- -------- -------- --------
  -2.000   0.4319   0.02213   0.01604  -0.1050   0.3426   0.0185
  -1.500   0.5035   0.02182   0.01521  -0.1090   0.3311   0.0202
  -1.000   0.5665   0.02033   0.01328  -0.1116   0.3226   0.0206
  -0.500   0.6195   0.01520   0.00790  -0.1164   0.3174   0.0231
   0.000   0.6808   0.01356   0.00593  -0.1188   0.3124   0.0272
   0.500   0.7441   0.01411   0.00594  -0.1185   0.3081   0.0320
   1.000   0.8041   0.01156   0.00300  -0.1217   0.3046   0.0363
   1.500   0.8633   0.01072   0.00185  -0.1225   0.3018   0.0507
