  
       XFOIL         Version 6.99
  
 Calculated polar for: NACA 6706                                       
  
 1 1 Reynolds number fixed          Mach number fixed         
  
 xtrf =   1.000 (top)        1.000 (bottom)  
 Mach =   0.050     Re =     0.200 e 6     Ncrit =   9.000
  
   alpha    CL        CD       CDp       CM     Top_Xtr  Bot_Xtr
  ------ -------- --------- --------- -------- -------- --------
  -2.000   0.2315   0.02655   0.01932  -0.1628   1.0000   0.0577
  -1.500   0.3273   0.02599   0.01903  -0.1721   1.0000   0.1684
  -1.000   0.4007   0.02625   0.01991  -0.1770   1.0000   0.3984
  -0.500   0.4583   0.02692   0.02090  -0.1781   1.0000   0.5462
   0.000   0.5063   0.02781   0.02197  -0.1769   1.0000   0.6418
   0.500   0.5506   0.02882   0.02305  -0.1751   1.0000   0.7053
   1.000   0.5978   0.02982   0.02412  -0.1741   1.0000   0.7555
   1.500   0.6481   0.03080   0.02524  -0.1739   1.0000   0.8020
   2.000   0.7005   0.03173   0.02638  -0.1742   1.0000   0.8589
   3.000   0.8908   0.03228   0.02736  -0.1906   0.9468   1.0000
   3.500   1.0975   0.02076   0.01631  -0.2109   0.8665   1.0000
   4.000   1.1184   0.01998   0.01110  -0.1975   0.0680   1.0000
   4.500   1.1495   0.02277   0.01391  -0.1923   0.0404   1.0000
   5.000   1.1899   0.02533   0.01656  -0.1888   0.0313   1.0000
   5.500   1.2993   0.03190   0.02337  -0.1975   0.0263   1.0000
   6.000   1.3821   0.04056   0.03275  -0.2003   0.0282   1.0000
