  
       XFOIL         Version 6.99
  
 Calculated polar for: NACA 5220                                       
  
 1 1 Reynolds number fixed          Mach number fixed         
  
 xtrf =   1.000 (top)        1.000 (bottom)  
 Mach =   0.050     Re =     0.200 e 6     Ncrit =   9.000
  
   alpha    CL        CD       CDp       CM     Top_Xtr  Bot_Xtr
  ------ -------- --------- --------- -------- -------- --------
  -2.000   0.3054   0.01836   0.00932  -0.0822   0.5943   0.1084
  -1.000   0.3954   0.01733   0.00808  -0.0775   0.5297   0.1269
  -0.500   0.4364   0.01704   0.00766  -0.0745   0.4938   0.1397
   0.000   0.4743   0.01690   0.00736  -0.0711   0.4558   0.1568
   0.500   0.5105   0.01684   0.00708  -0.0675   0.4196   0.1869
   1.000   0.5299   0.01522   0.00746  -0.0606   0.3928   0.7430
   1.500   0.5734   0.01585   0.00827  -0.0564   0.3709   0.9096
   2.000   0.6631   0.01706   0.00916  -0.0626   0.3527   0.9681
   2.500   0.7821   0.01832   0.01002  -0.0756   0.3391   0.9918
   3.000   0.8554   0.01892   0.01041  -0.0802   0.3303   1.0000
   3.500   0.8857   0.01952   0.01075  -0.0762   0.3244   1.0000
   4.000   0.9125   0.01993   0.01115  -0.0713   0.3202   1.0000
   4.500   0.9458   0.02049   0.01162  -0.0675   0.3160   1.0000
   5.000   0.9845   0.02114   0.01216  -0.0648   0.3121   1.0000
   5.500   1.0327   0.02204   0.01288  -0.0640   0.3084   1.0000
   6.000   1.0778   0.02299   0.01380  -0.0626   0.3051   1.0000
   6.500   1.1165   0.02382   0.01468  -0.0602   0.3020   1.0000
   7.000   1.1594   0.02477   0.01566  -0.0586   0.2991   1.0000
   7.500   1.2044   0.02580   0.01669  -0.0575   0.2963   1.0000
   8.000   1.2524   0.02690   0.01775  -0.0570   0.2938   1.0000
   8.500   1.3072   0.02828   0.01905  -0.0579   0.2908   1.0000
   9.000   1.3497   0.02992   0.02079  -0.0569   0.2884   1.0000
   9.500   1.3802   0.03134   0.02240  -0.0539   0.2865   1.0000
  10.000   1.4069   0.03295   0.02420  -0.0504   0.2844   1.0000
