  
       XFOIL         Version 6.99
  
 Calculated polar for: NACA 3228                                       
  
 1 1 Reynolds number fixed          Mach number fixed         
  
 xtrf =   1.000 (top)        1.000 (bottom)  
 Mach =   0.050     Re =     0.200 e 6     Ncrit =   9.000
  
   alpha    CL        CD       CDp       CM     Top_Xtr  Bot_Xtr
  ------ -------- --------- --------- -------- -------- --------
  -2.000   0.0455   0.01714   0.00949  -0.0367   0.5778   0.5580
  -1.500   0.0929   0.01717   0.00942  -0.0348   0.5599   0.5773
  -1.000   0.1345   0.01718   0.00935  -0.0319   0.5411   0.5964
  -0.500   0.1753   0.01727   0.00943  -0.0288   0.5223   0.6174
   0.000   0.2177   0.01738   0.00957  -0.0260   0.5040   0.6394
   0.500   0.2598   0.01753   0.00969  -0.0232   0.4863   0.6613
   1.000   0.3015   0.01768   0.00976  -0.0205   0.4686   0.6823
   1.500   0.3392   0.01787   0.00987  -0.0171   0.4511   0.7044
   2.000   0.3704   0.01808   0.01010  -0.0125   0.4341   0.7273
   2.500   0.4042   0.01841   0.01046  -0.0085   0.4176   0.7517
   3.000   0.4421   0.01889   0.01091  -0.0053   0.4025   0.7770
   3.500   0.4840   0.01946   0.01139  -0.0028   0.3888   0.8038
   4.000   0.5177   0.02010   0.01214   0.0009   0.3766   0.8322
   4.500   0.5615   0.02086   0.01281   0.0030   0.3661   0.8604
   5.000   0.5960   0.02165   0.01366   0.0066   0.3565   0.8896
   5.500   0.6504   0.02266   0.01453   0.0068   0.3483   0.9142
   6.000   0.7016   0.02383   0.01576   0.0068   0.3407   0.9368
   6.500   0.7858   0.02509   0.01683   0.0005   0.3334   0.9491
   7.000   0.8633   0.02654   0.01830  -0.0053   0.3269   0.9607
   7.500   0.9377   0.02784   0.01958  -0.0106   0.3211   0.9742
   8.000   1.0344   0.02895   0.02050  -0.0196   0.3157   0.9802
   8.500   1.1058   0.03046   0.02209  -0.0251   0.3109   0.9913
   9.000   1.1766   0.03194   0.02367  -0.0308   0.3064   1.0000
   9.500   1.1679   0.03256   0.02430  -0.0220   0.3036   1.0000
  10.000   1.1791   0.03316   0.02482  -0.0161   0.3006   1.0000
