  
       XFOIL         Version 6.99
  
 Calculated polar for: NACA 3326                                       
  
 1 1 Reynolds number fixed          Mach number fixed         
  
 xtrf =   1.000 (top)        1.000 (bottom)  
 Mach =   0.050     Re =     0.200 e 6     Ncrit =   9.000
  
   alpha    CL        CD       CDp       CM     Top_Xtr  Bot_Xtr
  ------ -------- --------- --------- -------- -------- --------
  -2.000   0.0724   0.01589   0.00826  -0.0537   0.5975   0.5322
  -1.500   0.1181   0.01597   0.00832  -0.0513   0.5782   0.5687
  -1.000   0.1638   0.01611   0.00836  -0.0490   0.5595   0.6010
  -0.500   0.2078   0.01626   0.00852  -0.0464   0.5420   0.6300
   0.000   0.2548   0.01647   0.00871  -0.0445   0.5259   0.6576
   0.500   0.3056   0.01673   0.00889  -0.0432   0.5117   0.6847
   1.000   0.3512   0.01694   0.00916  -0.0410   0.4985   0.7114
   1.500   0.4012   0.01729   0.00949  -0.0397   0.4867   0.7387
   2.000   0.4493   0.01759   0.00985  -0.0379   0.4758   0.7672
   2.500   0.5000   0.01809   0.01038  -0.0366   0.4662   0.7966
   3.000   0.5460   0.01855   0.01091  -0.0343   0.4567   0.8271
   3.500   0.6034   0.01924   0.01152  -0.0342   0.4487   0.8540
   4.000   0.6457   0.01978   0.01218  -0.0315   0.4403   0.8796
   4.500   0.7052   0.02047   0.01279  -0.0320   0.4328   0.9023
   5.000   0.7680   0.02141   0.01370  -0.0335   0.4252   0.9223
   5.500   0.8342   0.02226   0.01456  -0.0360   0.4173   0.9406
   6.000   0.9365   0.02332   0.01537  -0.0456   0.4093   0.9480
   6.500   1.0043   0.02428   0.01650  -0.0491   0.4020   0.9632
   7.000   1.0844   0.02504   0.01719  -0.0549   0.3944   0.9765
   7.500   1.1737   0.02604   0.01811  -0.0627   0.3873   0.9857
   8.500   1.2782   0.02731   0.01942  -0.0649   0.3740   1.0000
   9.000   1.2867   0.02801   0.02009  -0.0577   0.3688   1.0000
   9.500   1.2345   0.02854   0.02079  -0.0398   0.3644   1.0000
  10.000   1.2321   0.02925   0.02153  -0.0308   0.3588   1.0000
