  
       XFOIL         Version 6.99
  
 Calculated polar for: NACA 3824                                       
  
 1 1 Reynolds number fixed          Mach number fixed         
  
 xtrf =   1.000 (top)        1.000 (bottom)  
 Mach =   0.050     Re =     0.200 e 6     Ncrit =   9.000
  
   alpha    CL        CD       CDp       CM     Top_Xtr  Bot_Xtr
  ------ -------- --------- --------- -------- -------- --------
  -2.000   0.0635   0.01724   0.01022  -0.0940   0.7970   0.4524
  -1.500   0.1571   0.01608   0.00907  -0.1006   0.7818   0.4762
  -1.000   0.2505   0.01538   0.00832  -0.1074   0.7596   0.5002
  -0.500   0.3338   0.01520   0.00808  -0.1125   0.7332   0.5234
   0.000   0.4069   0.01528   0.00809  -0.1157   0.7065   0.5456
   0.500   0.4702   0.01548   0.00822  -0.1169   0.6807   0.5670
   1.000   0.5262   0.01572   0.00840  -0.1166   0.6559   0.5882
   1.500   0.5760   0.01598   0.00861  -0.1151   0.6320   0.6094
   2.000   0.6234   0.01627   0.00885  -0.1132   0.6090   0.6309
   2.500   0.6674   0.01661   0.00917  -0.1105   0.5870   0.6522
   3.000   0.7087   0.01699   0.00960  -0.1073   0.5658   0.6718
   3.500   0.7512   0.01743   0.01007  -0.1043   0.5452   0.6912
   4.000   0.7947   0.01794   0.01057  -0.1016   0.5254   0.7109
   4.500   0.8391   0.01850   0.01110  -0.0992   0.5062   0.7311
   5.000   0.8812   0.01913   0.01170  -0.0962   0.4878   0.7490
   5.500   0.9232   0.01976   0.01227  -0.0932   0.4698   0.7656
   6.000   0.9584   0.02039   0.01292  -0.0892   0.4522   0.7833
   6.500   0.9945   0.02105   0.01361  -0.0855   0.4349   0.8016
   7.000   1.0315   0.02173   0.01427  -0.0821   0.4182   0.8200
   7.500   1.0682   0.02239   0.01489  -0.0787   0.4022   0.8381
   8.000   1.1018   0.02304   0.01549  -0.0749   0.3865   0.8562
   8.500   1.1271   0.02372   0.01630  -0.0697   0.3712   0.8749
   9.000   1.1540   0.02442   0.01702  -0.0649   0.3566   0.8942
   9.500   1.1803   0.02509   0.01765  -0.0600   0.3428   0.9153
  10.000   1.1982   0.02585   0.01851  -0.0540   0.3292   0.9410
