  
       XFOIL         Version 6.99
  
 Calculated polar for: NACA 3214                                       
  
 1 1 Reynolds number fixed          Mach number fixed         
  
 xtrf =   1.000 (top)        1.000 (bottom)  
 Mach =   0.050     Re =     0.200 e 6     Ncrit =   9.000
  
   alpha    CL        CD       CDp       CM     Top_Xtr  Bot_Xtr
  ------ -------- --------- --------- -------- -------- --------
  -2.000   0.1146   0.01370   0.00587  -0.0587   0.8089   0.1366
  -1.500   0.1643   0.01278   0.00499  -0.0569   0.7756   0.1750
  -1.000   0.1942   0.01038   0.00468  -0.0514   0.7420   0.7116
  -0.500   0.2418   0.01029   0.00484  -0.0472   0.7045   0.8715
   0.000   0.3092   0.01068   0.00495  -0.0476   0.6618   0.9404
   0.500   0.4065   0.01120   0.00502  -0.0550   0.6067   0.9748
   1.000   0.5158   0.01166   0.00494  -0.0660   0.5373   1.0000
   1.500   0.5556   0.01197   0.00485  -0.0635   0.4833   1.0000
   2.000   0.5945   0.01243   0.00494  -0.0607   0.4369   1.0000
   2.500   0.6343   0.01297   0.00516  -0.0579   0.4032   1.0000
   3.000   0.6756   0.01358   0.00548  -0.0554   0.3810   1.0000
   3.500   0.7191   0.01416   0.00587  -0.0532   0.3647   1.0000
   4.000   0.7640   0.01471   0.00633  -0.0512   0.3514   1.0000
   4.500   0.8104   0.01539   0.00689  -0.0495   0.3414   1.0000
   5.000   0.8577   0.01603   0.00745  -0.0480   0.3327   1.0000
   5.500   0.9061   0.01678   0.00817  -0.0468   0.3248   1.0000
   6.000   0.9553   0.01749   0.00888  -0.0457   0.3178   1.0000
   6.500   1.0064   0.01846   0.00977  -0.0452   0.3111   1.0000
   7.000   1.0547   0.01920   0.01068  -0.0440   0.3047   1.0000
   7.500   1.1053   0.02008   0.01153  -0.0434   0.2984   1.0000
   8.000   1.1550   0.02120   0.01276  -0.0428   0.2925   1.0000
   8.500   1.2020   0.02209   0.01382  -0.0416   0.2858   1.0000
   9.000   1.2544   0.02330   0.01497  -0.0416   0.2795   1.0000
   9.500   1.2965   0.02435   0.01635  -0.0397   0.2729   1.0000
  10.000   1.3435   0.02526   0.01733  -0.0388   0.2656   1.0000
