  
       XFOIL         Version 6.99
  
 Calculated polar for: NACA 7620                                       
  
 1 1 Reynolds number fixed          Mach number fixed         
  
 xtrf =   1.000 (top)        1.000 (bottom)  
 Mach =   0.050     Re =     0.200 e 6     Ncrit =   9.000
  
   alpha    CL        CD       CDp       CM     Top_Xtr  Bot_Xtr
  ------ -------- --------- --------- -------- -------- --------
  -2.000   0.3191   0.03419   0.02678  -0.1723   0.7709   0.2639
  -1.500   0.3978   0.03319   0.02577  -0.1759   0.7679   0.2918
  -1.000   0.4787   0.03194   0.02465  -0.1797   0.7660   0.3214
   0.500   0.6385   0.03147   0.02436  -0.1784   0.7348   0.4060
   1.000   0.7161   0.02985   0.02290  -0.1812   0.7325   0.4406
   1.500   0.7978   0.02801   0.02110  -0.1846   0.7312   0.4785
   2.000   0.8842   0.02599   0.01921  -0.1888   0.7300   0.5157
   3.000   1.0136   0.02417   0.01754  -0.1906   0.7124   0.5836
   4.000   1.1127   0.02376   0.01725  -0.1878   0.6841   0.6468
   5.000   1.2479   0.02196   0.01553  -0.1909   0.6580   0.7184
   5.500   1.2977   0.02187   0.01550  -0.1897   0.6401   0.7583
   6.000   1.3450   0.02180   0.01554  -0.1880   0.6216   0.8182
   6.500   1.3866   0.02176   0.01553  -0.1853   0.6028   1.0000
   7.000   1.4358   0.02240   0.01597  -0.1846   0.5835   1.0000
   7.500   1.4770   0.02331   0.01675  -0.1826   0.5643   1.0000
   8.000   1.5120   0.02442   0.01778  -0.1796   0.5453   1.0000
   8.500   1.5427   0.02570   0.01900  -0.1760   0.5267   1.0000
   9.000   1.5705   0.02709   0.02035  -0.1720   0.5083   1.0000
   9.500   1.5966   0.02859   0.02182  -0.1680   0.4903   1.0000
  10.000   1.6213   0.03018   0.02339  -0.1638   0.4723   1.0000
