  
       XFOIL         Version 6.99
  
 Calculated polar for: NACA 9422                                       
  
 1 1 Reynolds number fixed          Mach number fixed         
  
 xtrf =   1.000 (top)        1.000 (bottom)  
 Mach =   0.050     Re =     0.200 e 6     Ncrit =   9.000
  
   alpha    CL        CD       CDp       CM     Top_Xtr  Bot_Xtr
  ------ -------- --------- --------- -------- -------- --------
  -2.000   0.7141   0.02116   0.01208  -0.1978   0.6034   0.1497
  -1.500   0.7589   0.02105   0.01189  -0.1960   0.5933   0.1607
  -1.000   0.8217   0.02105   0.01171  -0.1978   0.5853   0.1748
  -0.500   0.8600   0.02124   0.01196  -0.1949   0.5763   0.1881
   0.000   0.9189   0.02128   0.01191  -0.1959   0.5691   0.2060
   0.500   0.9662   0.02160   0.01229  -0.1950   0.5624   0.2251
   1.000   1.0104   0.02187   0.01261  -0.1933   0.5553   0.2467
   1.500   1.0730   0.02200   0.01271  -0.1952   0.5492   0.2761
   2.000   1.1153   0.02254   0.01340  -0.1935   0.5435   0.3073
   2.500   1.1506   0.02298   0.01402  -0.1905   0.5375   0.3458
   3.000   1.2080   0.02297   0.01438  -0.1917   0.5320   0.4514
   3.500   1.2635   0.02275   0.01504  -0.1917   0.5272   1.0000
   4.000   1.2787   0.02395   0.01630  -0.1852   0.5217   1.0000
   4.500   1.3171   0.02488   0.01713  -0.1830   0.5162   1.0000
   5.000   1.3817   0.02543   0.01746  -0.1854   0.5115   1.0000
   5.500   1.4225   0.02673   0.01872  -0.1839   0.5069   1.0000
   6.000   1.4220   0.02868   0.02083  -0.1757   0.5010   1.0000
   6.500   1.4597   0.02978   0.02189  -0.1739   0.4958   1.0000
   7.000   1.5299   0.03023   0.02216  -0.1772   0.4919   1.0000
   7.500   1.5261   0.03295   0.02506  -0.1694   0.4864   1.0000
   8.000   1.5031   0.03660   0.02894  -0.1597   0.4794   1.0000
   8.500   1.5502   0.03753   0.02982  -0.1596   0.4752   1.0000
   9.000   1.6430   0.03698   0.02905  -0.1656   0.4719   1.0000
   9.500   1.4168   0.05400   0.04687  -0.1362   0.4563   1.0000
  10.000   1.5088   0.05132   0.04404  -0.1399   0.4550   1.0000
