  
       XFOIL         Version 6.99
  
 Calculated polar for: NACA 4730                                       
  
 1 1 Reynolds number fixed          Mach number fixed         
  
 xtrf =   1.000 (top)        1.000 (bottom)  
 Mach =   0.050     Re =     0.200 e 6     Ncrit =   9.000
  
   alpha    CL        CD       CDp       CM     Top_Xtr  Bot_Xtr
  ------ -------- --------- --------- -------- -------- --------
  -2.000   0.1200   0.01991   0.01216  -0.1034   0.7183   0.4049
  -1.500   0.1855   0.01945   0.01175  -0.1052   0.7007   0.4194
  -1.000   0.2454   0.01925   0.01147  -0.1061   0.6823   0.4346
  -0.500   0.3059   0.01927   0.01143  -0.1071   0.6645   0.4501
   0.000   0.3715   0.01920   0.01132  -0.1091   0.6479   0.4657
   0.500   0.4333   0.01928   0.01123  -0.1104   0.6313   0.4825
   1.000   0.4683   0.01969   0.01177  -0.1068   0.6143   0.4970
   1.500   0.5224   0.01991   0.01192  -0.1067   0.5992   0.5138
   2.000   0.5782   0.02016   0.01210  -0.1069   0.5844   0.5312
   2.500   0.6127   0.02065   0.01271  -0.1034   0.5692   0.5466
   3.000   0.6716   0.02097   0.01288  -0.1042   0.5558   0.5653
   3.500   0.7051   0.02151   0.01356  -0.1005   0.5416   0.5815
   4.000   0.7524   0.02201   0.01405  -0.0994   0.5285   0.5994
   4.500   0.7989   0.02251   0.01450  -0.0981   0.5155   0.6178
   5.000   0.8340   0.02326   0.01537  -0.0949   0.5027   0.6341
   5.500   0.8905   0.02368   0.01565  -0.0954   0.4907   0.6534
   6.000   0.9138   0.02469   0.01684  -0.0904   0.4783   0.6695
   6.500   0.9728   0.02512   0.01713  -0.0912   0.4669   0.6875
   7.000   0.9909   0.02632   0.01847  -0.0859   0.4551   0.7054
   7.500   1.0430   0.02681   0.01890  -0.0856   0.4444   0.7226
   8.000   1.0614   0.02804   0.02028  -0.0805   0.4330   0.7396
   9.000   1.1264   0.03003   0.02237  -0.0749   0.4118   0.7761
   9.500   1.1724   0.03068   0.02296  -0.0740   0.4021   0.7953
  10.000   1.1856   0.03231   0.02477  -0.0690   0.3916   0.8147
