  
       XFOIL         Version 6.99
  
 Calculated polar for: NACA 7734                                       
  
 1 1 Reynolds number fixed          Mach number fixed         
  
 xtrf =   1.000 (top)        1.000 (bottom)  
 Mach =   0.050     Re =     0.200 e 6     Ncrit =   9.000
  
   alpha    CL        CD       CDp       CM     Top_Xtr  Bot_Xtr
  ------ -------- --------- --------- -------- -------- --------
  -2.000   0.1994   0.02993   0.02224  -0.1491   0.6916   0.3371
  -1.500   0.2493   0.03000   0.02227  -0.1493   0.6772   0.3475
  -1.000   0.3519   0.02831   0.02051  -0.1573   0.6719   0.3613
  -0.500   0.3994   0.02864   0.02084  -0.1571   0.6575   0.3722
   0.000   0.4961   0.02752   0.01959  -0.1643   0.6495   0.3867
   0.500   0.5279   0.02844   0.02055  -0.1616   0.6344   0.3974
   1.000   0.6223   0.02757   0.01955  -0.1685   0.6258   0.4127
   1.500   0.6400   0.02895   0.02100  -0.1635   0.6110   0.4233
   2.000   0.7308   0.02826   0.02020  -0.1698   0.6022   0.4391
   2.500   0.7412   0.02995   0.02197  -0.1638   0.5882   0.4501
   3.000   0.8230   0.02948   0.02142  -0.1685   0.5792   0.4660
   3.500   0.8342   0.03134   0.02335  -0.1628   0.5663   0.4777
   4.000   0.9039   0.03115   0.02315  -0.1656   0.5572   0.4934
   4.500   0.9230   0.03298   0.02500  -0.1613   0.5454   0.5062
   5.000   0.9769   0.03326   0.02535  -0.1617   0.5360   0.5218
   5.500   1.0123   0.03463   0.02669  -0.1599   0.5258   0.5369
   6.000   1.0460   0.03575   0.02794  -0.1576   0.5157   0.5510
   6.500   1.1130   0.03592   0.02796  -0.1602   0.5074   0.5690
   7.000   1.1106   0.03866   0.03095  -0.1530   0.4963   0.5809
   7.500   1.1813   0.03843   0.03058  -0.1559   0.4887   0.5992
   8.000   1.1750   0.04176   0.03413  -0.1487   0.4779   0.6110
   8.500   1.2210   0.04251   0.03487  -0.1482   0.4698   0.6266
   9.000   1.2500   0.04442   0.03681  -0.1460   0.4610   0.6414
   9.500   1.2583   0.04722   0.03977  -0.1409   0.4513   0.6532
  10.000   1.3399   0.04623   0.03855  -0.1451   0.4449   0.6716
