  
       XFOIL         Version 6.99
  
 Calculated polar for: NACA 2211                                       
  
 1 1 Reynolds number fixed          Mach number fixed         
  
 xtrf =   1.000 (top)        1.000 (bottom)  
 Mach =   0.050     Re =     0.200 e 6     Ncrit =   9.000
  
   alpha    CL        CD       CDp       CM     Top_Xtr  Bot_Xtr
  ------ -------- --------- --------- -------- -------- --------
  -2.000  -0.0130   0.01156   0.00487  -0.0415   0.9335   0.3197
  -1.500   0.0336   0.00961   0.00482  -0.0377   0.9129   0.8099
  -1.000   0.0977   0.00950   0.00479  -0.0365   0.8874   0.9255
  -0.500   0.1943   0.00953   0.00460  -0.0429   0.8569   0.9742
   0.000   0.2962   0.00940   0.00418  -0.0517   0.8154   1.0000
   0.500   0.3423   0.00932   0.00379  -0.0496   0.7624   1.0000
   1.000   0.3885   0.00942   0.00354  -0.0474   0.7043   1.0000
   1.500   0.4346   0.00966   0.00343  -0.0453   0.6422   1.0000
   2.000   0.4798   0.01007   0.00344  -0.0431   0.5752   1.0000
   2.500   0.5244   0.01060   0.00358  -0.0408   0.5070   1.0000
   3.000   0.5693   0.01125   0.00386  -0.0387   0.4503   1.0000
   3.500   0.6154   0.01190   0.00424  -0.0369   0.4104   1.0000
   4.000   0.6627   0.01259   0.00471  -0.0353   0.3832   1.0000
   4.500   0.7116   0.01323   0.00526  -0.0340   0.3624   1.0000
   5.000   0.7612   0.01390   0.00588  -0.0329   0.3457   1.0000
   5.500   0.8114   0.01460   0.00657  -0.0319   0.3309   1.0000
   6.000   0.8618   0.01533   0.00730  -0.0310   0.3169   1.0000
   6.500   0.9118   0.01605   0.00807  -0.0300   0.3023   1.0000
   7.000   0.9607   0.01671   0.00879  -0.0290   0.2858   1.0000
   7.500   1.0087   0.01731   0.00949  -0.0277   0.2681   1.0000
   8.000   1.0557   0.01788   0.01019  -0.0264   0.2498   1.0000
   8.500   1.1011   0.01845   0.01083  -0.0249   0.2301   1.0000
   9.000   1.1453   0.01885   0.01151  -0.0231   0.2051   1.0000
   9.500   1.1874   0.01940   0.01216  -0.0212   0.1669   1.0000
  10.000   1.2170   0.02136   0.01385  -0.0180   0.1097   1.0000
  -2.000  -0.0130   0.01156   0.00487  -0.0415   0.9335   0.3197
  -1.500   0.0336   0.00961   0.00482  -0.0377   0.9129   0.8099
  -1.000   0.0977   0.00950   0.00479  -0.0365   0.8874   0.9255
  -0.500   0.1943   0.00953   0.00460  -0.0429   0.8569   0.9742
   0.000   0.2962   0.00940   0.00418  -0.0517   0.8154   1.0000
   0.500   0.3423   0.00932   0.00379  -0.0496   0.7624   1.0000
   1.000   0.3885   0.00942   0.00354  -0.0474   0.7043   1.0000
   1.500   0.4346   0.00966   0.00343  -0.0453   0.6422   1.0000
   2.000   0.4798   0.01007   0.00344  -0.0431   0.5752   1.0000
   2.500   0.5244   0.01060   0.00358  -0.0408   0.5070   1.0000
   3.000   0.5693   0.01125   0.00386  -0.0387   0.4503   1.0000
   3.500   0.6154   0.01190   0.00424  -0.0369   0.4104   1.0000
   4.000   0.6627   0.01259   0.00471  -0.0353   0.3832   1.0000
   4.500   0.7116   0.01323   0.00526  -0.0340   0.3624   1.0000
   5.000   0.7612   0.01390   0.00588  -0.0329   0.3457   1.0000
   5.500   0.8114   0.01460   0.00657  -0.0319   0.3309   1.0000
   6.000   0.8618   0.01533   0.00730  -0.0310   0.3169   1.0000
   6.500   0.9118   0.01605   0.00807  -0.0300   0.3023   1.0000
   7.000   0.9607   0.01671   0.00879  -0.0290   0.2858   1.0000
   7.500   1.0087   0.01731   0.00949  -0.0277   0.2681   1.0000
   8.000   1.0557   0.01788   0.01019  -0.0264   0.2498   1.0000
   8.500   1.1011   0.01845   0.01083  -0.0249   0.2301   1.0000
   9.000   1.1453   0.01885   0.01151  -0.0231   0.2051   1.0000
   9.500   1.1874   0.01940   0.01216  -0.0212   0.1669   1.0000
  10.000   1.2170   0.02136   0.01385  -0.0180   0.1097   1.0000
