  
       XFOIL         Version 6.99
  
 Calculated polar for: NACA 2212                                       
  
 1 1 Reynolds number fixed          Mach number fixed         
  
 xtrf =   1.000 (top)        1.000 (bottom)  
 Mach =   0.050     Re =     0.200 e 6     Ncrit =   9.000
  
   alpha    CL        CD       CDp       CM     Top_Xtr  Bot_Xtr
  ------ -------- --------- --------- -------- -------- --------
  -2.000  -0.0139   0.01041   0.00501  -0.0407   0.9108   0.6385
  -1.000   0.0910   0.00968   0.00484  -0.0343   0.8565   0.8933
  -0.500   0.1639   0.00983   0.00482  -0.0356   0.8231   0.9463
   0.000   0.2633   0.01001   0.00469  -0.0431   0.7801   0.9783
   0.500   0.3614   0.01004   0.00437  -0.0515   0.7259   1.0000
   1.000   0.4070   0.01007   0.00407  -0.0497   0.6706   1.0000
   1.500   0.4522   0.01027   0.00389  -0.0477   0.6116   1.0000
   2.000   0.4964   0.01061   0.00388  -0.0456   0.5499   1.0000
   2.500   0.5399   0.01110   0.00400  -0.0433   0.4906   1.0000
   3.000   0.5835   0.01168   0.00425  -0.0410   0.4416   1.0000
   3.500   0.6282   0.01229   0.00461  -0.0390   0.4063   1.0000
   4.000   0.6740   0.01297   0.00504  -0.0371   0.3818   1.0000
   4.500   0.7211   0.01358   0.00557  -0.0355   0.3623   1.0000
   5.000   0.7690   0.01425   0.00615  -0.0340   0.3467   1.0000
   6.000   0.8668   0.01560   0.00749  -0.0316   0.3198   1.0000
   6.500   0.9160   0.01632   0.00826  -0.0305   0.3070   1.0000
   7.000   0.9648   0.01706   0.00907  -0.0293   0.2937   1.0000
   7.500   1.0127   0.01777   0.00984  -0.0281   0.2793   1.0000
   8.000   1.0596   0.01843   0.01058  -0.0267   0.2639   1.0000
   8.500   1.1051   0.01906   0.01132  -0.0252   0.2479   1.0000
   9.000   1.1488   0.01963   0.01203  -0.0234   0.2306   1.0000
   9.500   1.1904   0.02014   0.01271  -0.0213   0.2114   1.0000
  10.000   1.2298   0.02066   0.01343  -0.0189   0.1872   1.0000
