  
       XFOIL         Version 6.99
  
 Calculated polar for: NACA 2210                                       
  
 1 1 Reynolds number fixed          Mach number fixed         
  
 xtrf =   1.000 (top)        1.000 (bottom)  
 Mach =   0.050     Re =     0.200 e 6     Ncrit =   9.000
  
   alpha    CL        CD       CDp       CM     Top_Xtr  Bot_Xtr
  ------ -------- --------- --------- -------- -------- --------
  -2.000  -0.0249   0.01277   0.00524  -0.0387   0.9568   0.1397
   0.000   0.2793   0.00885   0.00372  -0.0504   0.8520   1.0000
   1.000   0.3734   0.00889   0.00316  -0.0456   0.7425   1.0000
   2.000   0.4666   0.00957   0.00307  -0.0411   0.6037   1.0000
   3.000   0.5579   0.01084   0.00351  -0.0369   0.4601   1.0000
   4.000   0.6544   0.01225   0.00442  -0.0340   0.3845   1.0000
   5.000   0.7555   0.01362   0.00562  -0.0322   0.3446   1.0000
   6.000   0.8576   0.01506   0.00708  -0.0306   0.3126   1.0000
   7.000   0.9565   0.01625   0.00848  -0.0286   0.2734   1.0000
   8.000   1.0519   0.01726   0.00979  -0.0262   0.2280   1.0000
