
 ===================================================
  XFOIL Version 6.99
  Copyright (C) 2000   Mark Drela, Harold Youngren

  This software comes with ABSOLUTELY NO WARRANTY,
    subject to the GNU General Public License.

  Caveat computor
 ===================================================

 File  xfoil.def  not found

   QUIT    Exit program

  .OPER    Direct operating point(s)
  .MDES    Complex mapping design routine
  .QDES    Surface speed design routine
  .GDES    Geometry design routine

   SAVE f  Write airfoil to labeled coordinate file
   PSAV f  Write airfoil to plain coordinate file
   ISAV f  Write airfoil to ISES coordinate file
   MSAV f  Write airfoil to MSES coordinate file
   REVE    Reverse written-airfoil node ordering

   LOAD f  Read buffer airfoil from coordinate file
   NACA i  Set NACA 4,5-digit airfoil and buffer airfoil
   INTE    Set buffer airfoil by interpolating two airfoils
   NORM    Buffer airfoil normalization toggle
   XYCM rr Change CM reference location, currently  0.25000 0.00000

   BEND    Display structural properties of current airfoil

   PCOP    Set current-airfoil panel nodes directly from buffer airfoil points
   PANE    Set current-airfoil panel nodes ( 160 ) based on curvature
  .PPAR    Show/change paneling

  .PLOP    Plotting options

   WDEF f  Write  current-settings file
   RDEF f  Reread current-settings file
   NAME s  Specify new airfoil name
   NINC    Increment name version number

   Z       Zoom    | (available in all menus)
   U       Unzoom  | 

 XFOIL   c>   ...............................................

  G raphics-enable flag:        T
  S ize of plot object          10.00"
  A spect ratio of plot object   0.5500
  P age dimensions              11.00 x  8.50"
  M argins from page edges       0.00",  0.00"
  F ont size (relative)          0.0150
  W indow/screen size fraction   0.8000
  B lowup input method:        Cursor    
  O rientation of plot:        Landscape 
  C olor PostScript output?     F

      Option, Value   (or <Return>)    c>   ...............................................

  G raphics-enable flag:        F
  S ize of plot object          10.00"
  A spect ratio of plot object   0.5500
  P age dimensions              11.00 x  8.50"
  M argins from page edges       0.00",  0.00"
  F ont size (relative)          0.0150
  W indow/screen size fraction   0.8000
  B lowup input method:        Cursor    
  O rientation of plot:        Landscape 
  C olor PostScript output?     F

      Option, Value   (or <Return>)    c>  
 XFOIL   c>   Max thickness =     0.120035  at x =   0.300
 Max camber    =     0.020000  at x =   0.202

 Buffer airfoil set using 331 points

 Blunt trailing edge.  Gap =  0.00252

 Paneling parameters used...
   Number of panel nodes       160
   Panel bunching parameter    1.000
   TE/LE panel density ratio   0.150
   Refined-area/LE panel density ratio    0.200
   Top    side refined area x/c limits  1.000 1.000
   Bottom side refined area x/c limits  1.000 1.000

 XFOIL   c>  
.OPERi   c>  
Enter Reynolds number   r>  
 M  =    0.0000
 Re =    200000

.OPERv   c>  
 Sonic Cp =   -269.02      Sonic Q/Qinf =    18.262


.OPERv   c>  
.OPERv   c>  
 Polar  1 newly created for accumulation
 Airfoil archived with polar: NACA 2212                                       

Enter  polar save filename  OR  <return> for no file   s>  
 New polar save file available

Enter  polar dump filename  OR  <return> for no file   s>  
 Polar dump file will NOT be written

 Polar accumulation enabled

.OPERva   c>   Calculating unit vorticity distributions ...
 Calculating wake trajectory ...
 Calculating source influence matrix ...

 Solving BL system ...

 Initializing BL ...
    side            1  ...
 MRCHUE: Inverse mode at  57     Hk =   3.852
 MRCHUE: Inverse mode at  58     Hk =   4.228
 MRCHUE: Inverse mode at  59     Hk =   4.597
 MRCHUE: Inverse mode at  60     Hk =   4.960
 MRCHUE: Inverse mode at  61     Hk =   5.318
 MRCHUE: Inverse mode at  62     Hk =   5.672
 MRCHUE: Inverse mode at  63     Hk =   6.022
 MRCHUE: Inverse mode at  64     Hk =   6.367
 MRCHUE: Inverse mode at  65     Hk =   6.710
 MRCHUE: Inverse mode at  66     Hk =   7.049
 MRCHUE: Inverse mode at  67     Hk =   7.386
 MRCHUE: Inverse mode at  68     Hk =   7.720
 MRCHUE: Inverse mode at  69     Hk =   7.454
 MRCHUE: Inverse mode at  70     Hk =   5.957
 MRCHUE: Inverse mode at  71     Hk =   4.856
 MRCHUE: Inverse mode at  72     Hk =   3.991
 MRCHUE: Inverse mode at  73     Hk =   3.289
 MRCHUE: Inverse mode at  79     Hk =   2.500
    side            2  ...
 MRCHUE: Inverse mode at  24     Hk =   4.356
 MRCHUE: Inverse mode at  25     Hk =   5.116
 MRCHUE: Inverse mode at  26     Hk =   5.915
 MRCHUE: Inverse mode at  27     Hk =   6.746
 MRCHUE: Inverse mode at  28     Hk =   7.598
 MRCHUE: Inverse mode at  29     Hk =   8.456
 MRCHUE: Inverse mode at  30     Hk =   9.309
 MRCHUE: Inverse mode at  31     Hk =   8.143
 MRCHUE: Inverse mode at  32     Hk =   5.028
 MRCHUE: Inverse mode at  33     Hk =   3.336
 MRCHUE: Inverse mode at  83     Hk =   2.500

 Side 1  free  transition at x/c =  0.8555   69
 Side 2  free  transition at x/c =  0.1514   31

   1   rms: 0.2440E+00   max: -.2482E+01   T at   31  2   RLX: 0.201
       a = -2.000      CL =  0.0148
      Cm = -0.0445     CD =  0.01259   =>   CDf =  0.00802    CDp =  0.00457

 Side 1  free  transition at x/c =  0.8720   70
 Side 2  free  transition at x/c =  0.1689   32

   2   rms: 0.1340E+00   max: -.1005E+01   T at   32  2   RLX: 0.497
       a = -2.000      CL =  0.0038
      Cm = -0.0430     CD =  0.01125   =>   CDf =  0.00768    CDp =  0.00357

 Side 1  free  transition at x/c =  0.8950   72
 Side 2  free  transition at x/c =  0.1932   34

   3   rms: 0.1314E+00   max: -.1168E+01   C at   34  2   RLX: 0.428
       a = -2.000      CL = -0.0203
      Cm = -0.0382     CD =  0.01118   =>   CDf =  0.00761    CDp =  0.00357

 Side 1  free  transition at x/c =  0.8980   72
 Side 2  free  transition at x/c =  0.2123   35

   4   rms: 0.2157E+00   max: -.3795E+01   C at   35  2   RLX: 0.132
       a = -2.000      CL = -0.0209
      Cm = -0.0382     CD =  0.01132   =>   CDf =  0.00743    CDp =  0.00389

 Side 1  free  transition at x/c =  0.8989   72
 Side 2  free  transition at x/c =  0.2192   35

   5   rms: 0.9650E-01   max: -.1052E+01   T at   35  2   RLX: 0.475
       a = -2.000      CL = -0.0181
      Cm = -0.0388     CD =  0.01160   =>   CDf =  0.00742    CDp =  0.00418

 Side 1  free  transition at x/c =  0.9024   72
 Side 2  free  transition at x/c =  0.4982   52

   6   rms: 0.8552E-01   max: -.1250E+01   C at   52  2   RLX: 0.400
       a = -2.000      CL = -0.0190
      Cm = -0.0392     CD =  0.01057   =>   CDf =  0.00613    CDp =  0.00445

 Side 1  free  transition at x/c =  0.9052   72
 Side 2  free  transition at x/c =  0.6058   59

   7   rms: 0.8674E-01   max: -.1379E+01   C at   59  2   RLX: 0.363
       a = -2.000      CL = -0.0211
      Cm = -0.0384     CD =  0.01028   =>   CDf =  0.00564    CDp =  0.00463

 Side 1  free  transition at x/c =  0.9075   72
 Side 2  free  transition at x/c =  0.6180   59

   8   rms: 0.4954E-01   max: -.7751E+00   C at   59  2   RLX: 0.645
       a = -2.000      CL = -0.0151
      Cm = -0.0401     CD =  0.01029   =>   CDf =  0.00550    CDp =  0.00479

 Side 1  free  transition at x/c =  0.9114   73
 Side 2  free  transition at x/c =  0.6315   60

   9   rms: 0.1416E-01   max: -.1993E+00   C at   60  2
       a = -2.000      CL = -0.0140
      Cm = -0.0407     CD =  0.01040   =>   CDf =  0.00547    CDp =  0.00493

 Side 1  free  transition at x/c =  0.9108   73
 Side 2  free  transition at x/c =  0.6368   61

  10   rms: 0.4118E-02   max: -.6699E-01   C at   61  2
       a = -2.000      CL = -0.0139
      Cm = -0.0407     CD =  0.01041   =>   CDf =  0.00543    CDp =  0.00498

 Side 1  free  transition at x/c =  0.9108   73
 Side 2  free  transition at x/c =  0.6385   61

  11   rms: 0.5023E-04   max: 0.6542E-03   C at   61  2
       a = -2.000      CL = -0.0139
      Cm = -0.0407     CD =  0.01041   =>   CDf =  0.00540    CDp =  0.00501
 plradd ia,ip,cpol            1           0  1.04951588E-02

 Point added to stored polar  1
 Point written to save file  NACA2212Pol                                     
 Dump file unspecified or not available
 Calculating wake trajectory ...
 Calculating source influence matrix ...

 Solving BL system ...

 Side 1  free  transition at x/c =  0.9108   73
 Side 2  free  transition at x/c =  0.6385   61

   1   rms: 0.2763E+00   max: -.4061E+01   C at   61  2   RLX: 0.123
       a = -1.500      CL = -0.0073
      Cm = -0.0403     CD =  0.01022   =>   CDf =  0.00541    CDp =  0.00481

 Side 1  free  transition at x/c =  0.9089   72
 Side 2  free  transition at x/c =  0.6644   62

   2   rms: 0.9960E-01   max: -.7566E+00   C at   62  2   RLX: 0.661
       a = -1.500      CL =  0.0037
      Cm = -0.0357     CD =  0.01023   =>   CDf =  0.00534    CDp =  0.00489

 Side 1  free  transition at x/c =  0.8775   71
 Side 2  free  transition at x/c =  0.7508   67

   3   rms: 0.6158E-01   max: -.3723E+00   D at   74  1
       a = -1.500      CL =  0.0387
      Cm = -0.0381     CD =  0.00975   =>   CDf =  0.00510    CDp =  0.00465

 MRCHDU: Convergence failed at  72  side 2    Res =  0.3954E+01
 MRCHDU: Convergence failed at  73  side 2    Res =  0.1089E+01
 MRCHDU: Convergence failed at  74  side 2    Res =  0.1564E+01
 MRCHDU: Convergence failed at  75  side 2    Res =  0.2054E+01
 MRCHDU: Convergence failed at  76  side 2    Res =  0.2543E+01
 MRCHDU: Convergence failed at  77  side 2    Res =  0.3039E+01
 MRCHDU: Convergence failed at  78  side 2    Res =  0.3445E+01
 MRCHDU: Convergence failed at  79  side 2    Res =  0.3724E+01
 MRCHDU: Convergence failed at  80  side 2    Res =  0.3842E+01
 MRCHDU: Convergence failed at  81  side 2    Res =  0.3828E+01
 MRCHDU: Convergence failed at  82  side 2    Res =  0.3705E+01
 MRCHDU: Convergence failed at  83  side 2    Res =  0.3679E+01
 Side 1  free  transition at x/c =  0.8896   71
 Side 2  free  transition at x/c =  0.8320   72

   4   rms: 0.9875E-01   max: 0.5571E+00   T at   83  2
       a = -1.500      CL =  0.0623
      Cm = -0.0424     CD =  0.00945   =>   CDf =  0.00459    CDp =  0.00486

 Side 1  free  transition at x/c =  0.8888   71
 Side 2  free  transition at x/c =  0.8134   71

   5   rms: 0.2830E-01   max: -.1079E+00   D at   71  2
       a = -1.500      CL =  0.0337
      Cm = -0.0366     CD =  0.00978   =>   CDf =  0.00487    CDp =  0.00491

 Side 1  free  transition at x/c =  0.8838   71
 Side 2  free  transition at x/c =  0.8044   70

   6   rms: 0.2502E-02   max: -.2192E-01   C at   70  2
       a = -1.500      CL =  0.0348
      Cm = -0.0369     CD =  0.00978   =>   CDf =  0.00488    CDp =  0.00490

 Side 1  free  transition at x/c =  0.8843   71
 Side 2  free  transition at x/c =  0.8054   70

   7   rms: 0.3320E-02   max: -.4785E-01   C at   70  2
       a = -1.500      CL =  0.0348
      Cm = -0.0369     CD =  0.00978   =>   CDf =  0.00489    CDp =  0.00489

 Side 1  free  transition at x/c =  0.8843   71
 Side 2  free  transition at x/c =  0.8055   70

   8   rms: 0.3269E-02   max: -.4720E-01   C at   70  2
       a = -1.500      CL =  0.0348
      Cm = -0.0369     CD =  0.00978   =>   CDf =  0.00489    CDp =  0.00489

 Side 1  free  transition at x/c =  0.8843   71
 Side 2  free  transition at x/c =  0.8055   70

   9   rms: 0.3274E-02   max: -.4726E-01   C at   70  2
       a = -1.500      CL =  0.0348
      Cm = -0.0369     CD =  0.00978   =>   CDf =  0.00489    CDp =  0.00489

 Side 1  free  transition at x/c =  0.8843   71
 Side 2  free  transition at x/c =  0.8055   70

  10   rms: 0.3273E-02   max: -.4724E-01   C at   70  2
       a = -1.500      CL =  0.0348
      Cm = -0.0369     CD =  0.00978   =>   CDf =  0.00489    CDp =  0.00489

 Side 1  free  transition at x/c =  0.8843   71
 Side 2  free  transition at x/c =  0.8055   70

  11   rms: 0.3274E-02   max: -.4725E-01   C at   70  2
       a = -1.500      CL =  0.0348
      Cm = -0.0369     CD =  0.00978   =>   CDf =  0.00489    CDp =  0.00489

 Side 1  free  transition at x/c =  0.8843   71
 Side 2  free  transition at x/c =  0.8055   70

  12   rms: 0.3274E-02   max: -.4725E-01   C at   70  2
       a = -1.500      CL =  0.0348
      Cm = -0.0369     CD =  0.00978   =>   CDf =  0.00489    CDp =  0.00489

 Side 1  free  transition at x/c =  0.8843   71
 Side 2  free  transition at x/c =  0.8055   70

  13   rms: 0.3274E-02   max: -.4725E-01   C at   70  2
       a = -1.500      CL =  0.0348
      Cm = -0.0369     CD =  0.00978   =>   CDf =  0.00489    CDp =  0.00489

 Side 1  free  transition at x/c =  0.8843   71
 Side 2  free  transition at x/c =  0.8055   70

  14   rms: 0.3273E-02   max: -.4724E-01   C at   70  2
       a = -1.500      CL =  0.0348
      Cm = -0.0369     CD =  0.00978   =>   CDf =  0.00489    CDp =  0.00489

 Side 1  free  transition at x/c =  0.8843   71
 Side 2  free  transition at x/c =  0.8055   70

  15   rms: 0.3274E-02   max: -.4725E-01   C at   70  2
       a = -1.500      CL =  0.0348
      Cm = -0.0369     CD =  0.00978   =>   CDf =  0.00489    CDp =  0.00489

 Side 1  free  transition at x/c =  0.8843   71
 Side 2  free  transition at x/c =  0.8055   70

  16   rms: 0.3273E-02   max: -.4724E-01   C at   70  2
       a = -1.500      CL =  0.0348
      Cm = -0.0369     CD =  0.00978   =>   CDf =  0.00489    CDp =  0.00489

 Side 1  free  transition at x/c =  0.8843   71
 Side 2  free  transition at x/c =  0.8055   70

  17   rms: 0.3274E-02   max: -.4725E-01   C at   70  2
       a = -1.500      CL =  0.0348
      Cm = -0.0369     CD =  0.00978   =>   CDf =  0.00489    CDp =  0.00489

 Side 1  free  transition at x/c =  0.8843   71
 Side 2  free  transition at x/c =  0.8055   70

  18   rms: 0.3273E-02   max: -.4725E-01   C at   70  2
       a = -1.500      CL =  0.0348
      Cm = -0.0369     CD =  0.00978   =>   CDf =  0.00489    CDp =  0.00489

 Side 1  free  transition at x/c =  0.8843   71
 Side 2  free  transition at x/c =  0.8055   70

  19   rms: 0.3274E-02   max: -.4725E-01   C at   70  2
       a = -1.500      CL =  0.0348
      Cm = -0.0369     CD =  0.00978   =>   CDf =  0.00489    CDp =  0.00489

 Side 1  free  transition at x/c =  0.8843   71
 Side 2  free  transition at x/c =  0.8055   70

  20   rms: 0.3273E-02   max: -.4725E-01   C at   70  2
       a = -1.500      CL =  0.0348
      Cm = -0.0369     CD =  0.00978   =>   CDf =  0.00489    CDp =  0.00489

 Side 1  free  transition at x/c =  0.8843   71
 Side 2  free  transition at x/c =  0.8055   70

  21   rms: 0.3274E-02   max: -.4725E-01   C at   70  2
       a = -1.500      CL =  0.0348
      Cm = -0.0369     CD =  0.00978   =>   CDf =  0.00489    CDp =  0.00489

 Side 1  free  transition at x/c =  0.8843   71
 Side 2  free  transition at x/c =  0.8055   70

  22   rms: 0.3273E-02   max: -.4725E-01   C at   70  2
       a = -1.500      CL =  0.0348
      Cm = -0.0369     CD =  0.00978   =>   CDf =  0.00489    CDp =  0.00489

 Side 1  free  transition at x/c =  0.8843   71
 Side 2  free  transition at x/c =  0.8055   70

  23   rms: 0.3274E-02   max: -.4725E-01   C at   70  2
       a = -1.500      CL =  0.0348
      Cm = -0.0369     CD =  0.00978   =>   CDf =  0.00489    CDp =  0.00489

 Side 1  free  transition at x/c =  0.8843   71
 Side 2  free  transition at x/c =  0.8055   70

  24   rms: 0.3274E-02   max: -.4725E-01   C at   70  2
       a = -1.500      CL =  0.0348
      Cm = -0.0369     CD =  0.00978   =>   CDf =  0.00489    CDp =  0.00489

 Side 1  free  transition at x/c =  0.8843   71
 Side 2  free  transition at x/c =  0.8055   70

  25   rms: 0.3273E-02   max: -.4724E-01   C at   70  2
       a = -1.500      CL =  0.0348
      Cm = -0.0369     CD =  0.00978   =>   CDf =  0.00489    CDp =  0.00489

 Side 1  free  transition at x/c =  0.8843   71
 Side 2  free  transition at x/c =  0.8055   70

  26   rms: 0.3274E-02   max: -.4725E-01   C at   70  2
       a = -1.500      CL =  0.0348
      Cm = -0.0369     CD =  0.00978   =>   CDf =  0.00489    CDp =  0.00489

 Side 1  free  transition at x/c =  0.8843   71
 Side 2  free  transition at x/c =  0.8055   70

  27   rms: 0.3273E-02   max: -.4725E-01   C at   70  2
       a = -1.500      CL =  0.0348
      Cm = -0.0369     CD =  0.00978   =>   CDf =  0.00489    CDp =  0.00489

 Side 1  free  transition at x/c =  0.8843   71
 Side 2  free  transition at x/c =  0.8055   70

  28   rms: 0.3273E-02   max: -.4725E-01   C at   70  2
       a = -1.500      CL =  0.0348
      Cm = -0.0369     CD =  0.00978   =>   CDf =  0.00489    CDp =  0.00489

 Side 1  free  transition at x/c =  0.8843   71
 Side 2  free  transition at x/c =  0.8055   70

  29   rms: 0.3274E-02   max: -.4725E-01   C at   70  2
       a = -1.500      CL =  0.0348
      Cm = -0.0369     CD =  0.00978   =>   CDf =  0.00489    CDp =  0.00489

 Side 1  free  transition at x/c =  0.8843   71
 Side 2  free  transition at x/c =  0.8055   70

  30   rms: 0.3273E-02   max: -.4725E-01   C at   70  2
       a = -1.500      CL =  0.0348
      Cm = -0.0369     CD =  0.00978   =>   CDf =  0.00489    CDp =  0.00489

 Side 1  free  transition at x/c =  0.8843   71
 Side 2  free  transition at x/c =  0.8055   70

  31   rms: 0.3274E-02   max: -.4725E-01   C at   70  2
       a = -1.500      CL =  0.0348
      Cm = -0.0369     CD =  0.00978   =>   CDf =  0.00489    CDp =  0.00489

 Side 1  free  transition at x/c =  0.8843   71
 Side 2  free  transition at x/c =  0.8055   70

  32   rms: 0.3274E-02   max: -.4725E-01   C at   70  2
       a = -1.500      CL =  0.0348
      Cm = -0.0369     CD =  0.00978   =>   CDf =  0.00489    CDp =  0.00489

 Side 1  free  transition at x/c =  0.8843   71
 Side 2  free  transition at x/c =  0.8055   70

  33   rms: 0.3274E-02   max: -.4725E-01   C at   70  2
       a = -1.500      CL =  0.0348
      Cm = -0.0369     CD =  0.00978   =>   CDf =  0.00489    CDp =  0.00489

 Side 1  free  transition at x/c =  0.8843   71
 Side 2  free  transition at x/c =  0.8055   70

  34   rms: 0.3274E-02   max: -.4725E-01   C at   70  2
       a = -1.500      CL =  0.0348
      Cm = -0.0369     CD =  0.00978   =>   CDf =  0.00489    CDp =  0.00489

 Side 1  free  transition at x/c =  0.8843   71
 Side 2  free  transition at x/c =  0.8055   70

  35   rms: 0.3273E-02   max: -.4725E-01   C at   70  2
       a = -1.500      CL =  0.0348
      Cm = -0.0369     CD =  0.00978   =>   CDf =  0.00489    CDp =  0.00489

 Side 1  free  transition at x/c =  0.8843   71
 Side 2  free  transition at x/c =  0.8055   70

  36   rms: 0.3273E-02   max: -.4725E-01   C at   70  2
       a = -1.500      CL =  0.0348
      Cm = -0.0369     CD =  0.00978   =>   CDf =  0.00489    CDp =  0.00489

 Side 1  free  transition at x/c =  0.8843   71
 Side 2  free  transition at x/c =  0.8055   70

  37   rms: 0.3273E-02   max: -.4725E-01   C at   70  2
       a = -1.500      CL =  0.0348
      Cm = -0.0369     CD =  0.00978   =>   CDf =  0.00489    CDp =  0.00489

 Side 1  free  transition at x/c =  0.8843   71
 Side 2  free  transition at x/c =  0.8055   70

  38   rms: 0.3274E-02   max: -.4725E-01   C at   70  2
       a = -1.500      CL =  0.0348
      Cm = -0.0369     CD =  0.00978   =>   CDf =  0.00489    CDp =  0.00489

 Side 1  free  transition at x/c =  0.8843   71
 Side 2  free  transition at x/c =  0.8055   70

  39   rms: 0.3274E-02   max: -.4725E-01   C at   70  2
       a = -1.500      CL =  0.0348
      Cm = -0.0369     CD =  0.00978   =>   CDf =  0.00489    CDp =  0.00489

 Side 1  free  transition at x/c =  0.8843   71
 Side 2  free  transition at x/c =  0.8055   70

  40   rms: 0.3273E-02   max: -.4725E-01   C at   70  2
       a = -1.500      CL =  0.0348
      Cm = -0.0369     CD =  0.00978   =>   CDf =  0.00489    CDp =  0.00489

 Side 1  free  transition at x/c =  0.8843   71
 Side 2  free  transition at x/c =  0.8055   70

  41   rms: 0.3273E-02   max: -.4724E-01   C at   70  2
       a = -1.500      CL =  0.0348
      Cm = -0.0369     CD =  0.00978   =>   CDf =  0.00489    CDp =  0.00489

 Side 1  free  transition at x/c =  0.8843   71
 Side 2  free  transition at x/c =  0.8055   70

  42   rms: 0.3273E-02   max: -.4725E-01   C at   70  2
       a = -1.500      CL =  0.0348
      Cm = -0.0369     CD =  0.00978   =>   CDf =  0.00489    CDp =  0.00489

 Side 1  free  transition at x/c =  0.8843   71
 Side 2  free  transition at x/c =  0.8055   70

  43   rms: 0.3274E-02   max: -.4725E-01   C at   70  2
       a = -1.500      CL =  0.0348
      Cm = -0.0369     CD =  0.00978   =>   CDf =  0.00489    CDp =  0.00489

 Side 1  free  transition at x/c =  0.8843   71
 Side 2  free  transition at x/c =  0.8055   70

  44   rms: 0.3273E-02   max: -.4725E-01   C at   70  2
       a = -1.500      CL =  0.0348
      Cm = -0.0369     CD =  0.00978   =>   CDf =  0.00489    CDp =  0.00489

 Side 1  free  transition at x/c =  0.8843   71
 Side 2  free  transition at x/c =  0.8055   70

  45   rms: 0.3273E-02   max: -.4725E-01   C at   70  2
       a = -1.500      CL =  0.0348
      Cm = -0.0369     CD =  0.00978   =>   CDf =  0.00489    CDp =  0.00489

 Side 1  free  transition at x/c =  0.8843   71
 Side 2  free  transition at x/c =  0.8055   70

  46   rms: 0.3273E-02   max: -.4725E-01   C at   70  2
       a = -1.500      CL =  0.0348
      Cm = -0.0369     CD =  0.00978   =>   CDf =  0.00489    CDp =  0.00489

 Side 1  free  transition at x/c =  0.8843   71
 Side 2  free  transition at x/c =  0.8055   70

  47   rms: 0.3274E-02   max: -.4725E-01   C at   70  2
       a = -1.500      CL =  0.0348
      Cm = -0.0369     CD =  0.00978   =>   CDf =  0.00489    CDp =  0.00489

 Side 1  free  transition at x/c =  0.8843   71
 Side 2  free  transition at x/c =  0.8055   70

  48   rms: 0.3273E-02   max: -.4724E-01   C at   70  2
       a = -1.500      CL =  0.0348
      Cm = -0.0369     CD =  0.00978   =>   CDf =  0.00489    CDp =  0.00489

 Side 1  free  transition at x/c =  0.8843   71
 Side 2  free  transition at x/c =  0.8055   70

  49   rms: 0.3273E-02   max: -.4725E-01   C at   70  2
       a = -1.500      CL =  0.0348
      Cm = -0.0369     CD =  0.00978   =>   CDf =  0.00489    CDp =  0.00489

 Side 1  free  transition at x/c =  0.8843   71
 Side 2  free  transition at x/c =  0.8055   70

  50   rms: 0.3274E-02   max: -.4725E-01   C at   70  2
       a = -1.500      CL =  0.0348
      Cm = -0.0369     CD =  0.00978   =>   CDf =  0.00489    CDp =  0.00489

 Side 1  free  transition at x/c =  0.8843   71
 Side 2  free  transition at x/c =  0.8055   70

  51   rms: 0.3274E-02   max: -.4725E-01   C at   70  2
       a = -1.500      CL =  0.0348
      Cm = -0.0369     CD =  0.00978   =>   CDf =  0.00489    CDp =  0.00489

 Side 1  free  transition at x/c =  0.8843   71
 Side 2  free  transition at x/c =  0.8055   70

  52   rms: 0.3273E-02   max: -.4725E-01   C at   70  2
       a = -1.500      CL =  0.0348
      Cm = -0.0369     CD =  0.00978   =>   CDf =  0.00489    CDp =  0.00489

 Side 1  free  transition at x/c =  0.8843   71
 Side 2  free  transition at x/c =  0.8055   70

  53   rms: 0.3274E-02   max: -.4725E-01   C at   70  2
       a = -1.500      CL =  0.0348
      Cm = -0.0369     CD =  0.00978   =>   CDf =  0.00489    CDp =  0.00489

 Side 1  free  transition at x/c =  0.8843   71
 Side 2  free  transition at x/c =  0.8055   70

  54   rms: 0.3273E-02   max: -.4725E-01   C at   70  2
       a = -1.500      CL =  0.0348
      Cm = -0.0369     CD =  0.00978   =>   CDf =  0.00489    CDp =  0.00489

 Side 1  free  transition at x/c =  0.8843   71
 Side 2  free  transition at x/c =  0.8055   70

  55   rms: 0.3273E-02   max: -.4725E-01   C at   70  2
       a = -1.500      CL =  0.0348
      Cm = -0.0369     CD =  0.00978   =>   CDf =  0.00489    CDp =  0.00489

 Side 1  free  transition at x/c =  0.8843   71
 Side 2  free  transition at x/c =  0.8055   70

  56   rms: 0.3274E-02   max: -.4725E-01   C at   70  2
       a = -1.500      CL =  0.0348
      Cm = -0.0369     CD =  0.00978   =>   CDf =  0.00489    CDp =  0.00489

 Side 1  free  transition at x/c =  0.8843   71
 Side 2  free  transition at x/c =  0.8055   70

  57   rms: 0.3273E-02   max: -.4725E-01   C at   70  2
       a = -1.500      CL =  0.0348
      Cm = -0.0369     CD =  0.00978   =>   CDf =  0.00489    CDp =  0.00489

 Side 1  free  transition at x/c =  0.8843   71
 Side 2  free  transition at x/c =  0.8055   70

  58   rms: 0.3273E-02   max: -.4724E-01   C at   70  2
       a = -1.500      CL =  0.0348
      Cm = -0.0369     CD =  0.00978   =>   CDf =  0.00489    CDp =  0.00489

 Side 1  free  transition at x/c =  0.8843   71
 Side 2  free  transition at x/c =  0.8055   70

  59   rms: 0.3274E-02   max: -.4725E-01   C at   70  2
       a = -1.500      CL =  0.0348
      Cm = -0.0369     CD =  0.00978   =>   CDf =  0.00489    CDp =  0.00489

 Side 1  free  transition at x/c =  0.8843   71
 Side 2  free  transition at x/c =  0.8055   70

  60   rms: 0.3273E-02   max: -.4725E-01   C at   70  2
       a = -1.500      CL =  0.0348
      Cm = -0.0369     CD =  0.00978   =>   CDf =  0.00489    CDp =  0.00489

 Side 1  free  transition at x/c =  0.8843   71
 Side 2  free  transition at x/c =  0.8055   70

  61   rms: 0.3273E-02   max: -.4725E-01   C at   70  2
       a = -1.500      CL =  0.0348
      Cm = -0.0369     CD =  0.00978   =>   CDf =  0.00489    CDp =  0.00489

 Side 1  free  transition at x/c =  0.8843   71
 Side 2  free  transition at x/c =  0.8055   70

  62   rms: 0.3274E-02   max: -.4725E-01   C at   70  2
       a = -1.500      CL =  0.0348
      Cm = -0.0369     CD =  0.00978   =>   CDf =  0.00489    CDp =  0.00489

 Side 1  free  transition at x/c =  0.8843   71
 Side 2  free  transition at x/c =  0.8055   70

  63   rms: 0.3273E-02   max: -.4725E-01   C at   70  2
       a = -1.500      CL =  0.0348
      Cm = -0.0369     CD =  0.00978   =>   CDf =  0.00489    CDp =  0.00489

 Side 1  free  transition at x/c =  0.8843   71
 Side 2  free  transition at x/c =  0.8055   70

  64   rms: 0.3273E-02   max: -.4725E-01   C at   70  2
       a = -1.500      CL =  0.0348
      Cm = -0.0369     CD =  0.00978   =>   CDf =  0.00489    CDp =  0.00489

 Side 1  free  transition at x/c =  0.8843   71
 Side 2  free  transition at x/c =  0.8055   70

  65   rms: 0.3274E-02   max: -.4725E-01   C at   70  2
       a = -1.500      CL =  0.0348
      Cm = -0.0369     CD =  0.00978   =>   CDf =  0.00489    CDp =  0.00489

 Side 1  free  transition at x/c =  0.8843   71
 Side 2  free  transition at x/c =  0.8055   70

  66   rms: 0.3273E-02   max: -.4725E-01   C at   70  2
       a = -1.500      CL =  0.0348
      Cm = -0.0369     CD =  0.00978   =>   CDf =  0.00489    CDp =  0.00489

 Side 1  free  transition at x/c =  0.8843   71
 Side 2  free  transition at x/c =  0.8055   70

  67   rms: 0.3274E-02   max: -.4725E-01   C at   70  2
       a = -1.500      CL =  0.0348
      Cm = -0.0369     CD =  0.00978   =>   CDf =  0.00489    CDp =  0.00489

 Side 1  free  transition at x/c =  0.8843   71
 Side 2  free  transition at x/c =  0.8055   70

  68   rms: 0.3273E-02   max: -.4725E-01   C at   70  2
       a = -1.500      CL =  0.0348
      Cm = -0.0369     CD =  0.00978   =>   CDf =  0.00489    CDp =  0.00489

 Side 1  free  transition at x/c =  0.8843   71
 Side 2  free  transition at x/c =  0.8055   70

  69   rms: 0.3274E-02   max: -.4725E-01   C at   70  2
       a = -1.500      CL =  0.0348
      Cm = -0.0369     CD =  0.00978   =>   CDf =  0.00489    CDp =  0.00489

 Side 1  free  transition at x/c =  0.8843   71
 Side 2  free  transition at x/c =  0.8055   70

  70   rms: 0.3274E-02   max: -.4725E-01   C at   70  2
       a = -1.500      CL =  0.0348
      Cm = -0.0369     CD =  0.00978   =>   CDf =  0.00489    CDp =  0.00489

 Side 1  free  transition at x/c =  0.8843   71
 Side 2  free  transition at x/c =  0.8055   70

  71   rms: 0.3273E-02   max: -.4725E-01   C at   70  2
       a = -1.500      CL =  0.0348
      Cm = -0.0369     CD =  0.00978   =>   CDf =  0.00489    CDp =  0.00489

 Side 1  free  transition at x/c =  0.8843   71
 Side 2  free  transition at x/c =  0.8055   70

  72   rms: 0.3274E-02   max: -.4725E-01   C at   70  2
       a = -1.500      CL =  0.0348
      Cm = -0.0369     CD =  0.00978   =>   CDf =  0.00489    CDp =  0.00489

 Side 1  free  transition at x/c =  0.8843   71
 Side 2  free  transition at x/c =  0.8055   70

  73   rms: 0.3273E-02   max: -.4725E-01   C at   70  2
       a = -1.500      CL =  0.0348
      Cm = -0.0369     CD =  0.00978   =>   CDf =  0.00489    CDp =  0.00489

 Side 1  free  transition at x/c =  0.8843   71
 Side 2  free  transition at x/c =  0.8055   70

  74   rms: 0.3274E-02   max: -.4725E-01   C at   70  2
       a = -1.500      CL =  0.0348
      Cm = -0.0369     CD =  0.00978   =>   CDf =  0.00489    CDp =  0.00489

 Side 1  free  transition at x/c =  0.8843   71
 Side 2  free  transition at x/c =  0.8055   70

  75   rms: 0.3273E-02   max: -.4725E-01   C at   70  2
       a = -1.500      CL =  0.0348
      Cm = -0.0369     CD =  0.00978   =>   CDf =  0.00489    CDp =  0.00489

 Side 1  free  transition at x/c =  0.8843   71
 Side 2  free  transition at x/c =  0.8055   70

  76   rms: 0.3274E-02   max: -.4725E-01   C at   70  2
       a = -1.500      CL =  0.0348
      Cm = -0.0369     CD =  0.00978   =>   CDf =  0.00489    CDp =  0.00489

 Side 1  free  transition at x/c =  0.8843   71
 Side 2  free  transition at x/c =  0.8055   70

  77   rms: 0.3273E-02   max: -.4725E-01   C at   70  2
       a = -1.500      CL =  0.0348
      Cm = -0.0369     CD =  0.00978   =>   CDf =  0.00489    CDp =  0.00489

 Side 1  free  transition at x/c =  0.8843   71
 Side 2  free  transition at x/c =  0.8055   70

  78   rms: 0.3273E-02   max: -.4725E-01   C at   70  2
       a = -1.500      CL =  0.0348
      Cm = -0.0369     CD =  0.00978   =>   CDf =  0.00489    CDp =  0.00489

 Side 1  free  transition at x/c =  0.8843   71
 Side 2  free  transition at x/c =  0.8055   70

  79   rms: 0.3273E-02   max: -.4725E-01   C at   70  2
       a = -1.500      CL =  0.0348
      Cm = -0.0369     CD =  0.00978   =>   CDf =  0.00489    CDp =  0.00489

 Side 1  free  transition at x/c =  0.8843   71
 Side 2  free  transition at x/c =  0.8055   70

  80   rms: 0.3273E-02   max: -.4724E-01   C at   70  2
       a = -1.500      CL =  0.0348
      Cm = -0.0369     CD =  0.00978   =>   CDf =  0.00489    CDp =  0.00489

 Side 1  free  transition at x/c =  0.8843   71
 Side 2  free  transition at x/c =  0.8055   70

  81   rms: 0.3274E-02   max: -.4725E-01   C at   70  2
       a = -1.500      CL =  0.0348
      Cm = -0.0369     CD =  0.00978   =>   CDf =  0.00489    CDp =  0.00489

 Side 1  free  transition at x/c =  0.8843   71
 Side 2  free  transition at x/c =  0.8055   70

  82   rms: 0.3273E-02   max: -.4725E-01   C at   70  2
       a = -1.500      CL =  0.0348
      Cm = -0.0369     CD =  0.00978   =>   CDf =  0.00489    CDp =  0.00489

 Side 1  free  transition at x/c =  0.8843   71
 Side 2  free  transition at x/c =  0.8055   70

  83   rms: 0.3273E-02   max: -.4725E-01   C at   70  2
       a = -1.500      CL =  0.0348
      Cm = -0.0369     CD =  0.00978   =>   CDf =  0.00489    CDp =  0.00489

 Side 1  free  transition at x/c =  0.8843   71
 Side 2  free  transition at x/c =  0.8055   70

  84   rms: 0.3273E-02   max: -.4725E-01   C at   70  2
       a = -1.500      CL =  0.0348
      Cm = -0.0369     CD =  0.00978   =>   CDf =  0.00489    CDp =  0.00489

 Side 1  free  transition at x/c =  0.8843   71
 Side 2  free  transition at x/c =  0.8055   70

  85   rms: 0.3274E-02   max: -.4725E-01   C at   70  2
       a = -1.500      CL =  0.0348
      Cm = -0.0369     CD =  0.00978   =>   CDf =  0.00489    CDp =  0.00489

 Side 1  free  transition at x/c =  0.8843   71
 Side 2  free  transition at x/c =  0.8055   70

  86   rms: 0.3274E-02   max: -.4725E-01   C at   70  2
       a = -1.500      CL =  0.0348
      Cm = -0.0369     CD =  0.00978   =>   CDf =  0.00489    CDp =  0.00489

 Side 1  free  transition at x/c =  0.8843   71
 Side 2  free  transition at x/c =  0.8055   70

  87   rms: 0.3273E-02   max: -.4725E-01   C at   70  2
       a = -1.500      CL =  0.0348
      Cm = -0.0369     CD =  0.00978   =>   CDf =  0.00489    CDp =  0.00489

 Side 1  free  transition at x/c =  0.8843   71
 Side 2  free  transition at x/c =  0.8055   70

  88   rms: 0.3274E-02   max: -.4725E-01   C at   70  2
       a = -1.500      CL =  0.0348
      Cm = -0.0369     CD =  0.00978   =>   CDf =  0.00489    CDp =  0.00489

 Side 1  free  transition at x/c =  0.8843   71
 Side 2  free  transition at x/c =  0.8055   70

  89   rms: 0.3273E-02   max: -.4725E-01   C at   70  2
       a = -1.500      CL =  0.0348
      Cm = -0.0369     CD =  0.00978   =>   CDf =  0.00489    CDp =  0.00489

 Side 1  free  transition at x/c =  0.8843   71
 Side 2  free  transition at x/c =  0.8055   70

  90   rms: 0.3274E-02   max: -.4725E-01   C at   70  2
       a = -1.500      CL =  0.0348
      Cm = -0.0369     CD =  0.00978   =>   CDf =  0.00489    CDp =  0.00489

 Side 1  free  transition at x/c =  0.8843   71
 Side 2  free  transition at x/c =  0.8055   70

  91   rms: 0.3273E-02   max: -.4724E-01   C at   70  2
       a = -1.500      CL =  0.0348
      Cm = -0.0369     CD =  0.00978   =>   CDf =  0.00489    CDp =  0.00489

 Side 1  free  transition at x/c =  0.8843   71
 Side 2  free  transition at x/c =  0.8055   70

  92   rms: 0.3274E-02   max: -.4725E-01   C at   70  2
       a = -1.500      CL =  0.0348
      Cm = -0.0369     CD =  0.00978   =>   CDf =  0.00489    CDp =  0.00489

 Side 1  free  transition at x/c =  0.8843   71
 Side 2  free  transition at x/c =  0.8055   70

  93   rms: 0.3274E-02   max: -.4725E-01   C at   70  2
       a = -1.500      CL =  0.0348
      Cm = -0.0369     CD =  0.00978   =>   CDf =  0.00489    CDp =  0.00489

 Side 1  free  transition at x/c =  0.8843   71
 Side 2  free  transition at x/c =  0.8055   70

  94   rms: 0.3273E-02   max: -.4725E-01   C at   70  2
       a = -1.500      CL =  0.0348
      Cm = -0.0369     CD =  0.00978   =>   CDf =  0.00489    CDp =  0.00489

 Side 1  free  transition at x/c =  0.8843   71
 Side 2  free  transition at x/c =  0.8055   70

  95   rms: 0.3273E-02   max: -.4725E-01   C at   70  2
       a = -1.500      CL =  0.0348
      Cm = -0.0369     CD =  0.00978   =>   CDf =  0.00489    CDp =  0.00489

 Side 1  free  transition at x/c =  0.8843   71
 Side 2  free  transition at x/c =  0.8055   70

  96   rms: 0.3274E-02   max: -.4725E-01   C at   70  2
       a = -1.500      CL =  0.0348
      Cm = -0.0369     CD =  0.00978   =>   CDf =  0.00489    CDp =  0.00489

 Side 1  free  transition at x/c =  0.8843   71
 Side 2  free  transition at x/c =  0.8055   70

  97   rms: 0.3273E-02   max: -.4725E-01   C at   70  2
       a = -1.500      CL =  0.0348
      Cm = -0.0369     CD =  0.00978   =>   CDf =  0.00489    CDp =  0.00489

 Side 1  free  transition at x/c =  0.8843   71
 Side 2  free  transition at x/c =  0.8055   70

  98   rms: 0.3273E-02   max: -.4724E-01   C at   70  2
       a = -1.500      CL =  0.0348
      Cm = -0.0369     CD =  0.00978   =>   CDf =  0.00489    CDp =  0.00489

 Side 1  free  transition at x/c =  0.8843   71
 Side 2  free  transition at x/c =  0.8055   70

  99   rms: 0.3274E-02   max: -.4725E-01   C at   70  2
       a = -1.500      CL =  0.0348
      Cm = -0.0369     CD =  0.00978   =>   CDf =  0.00489    CDp =  0.00489

 Side 1  free  transition at x/c =  0.8843   71
 Side 2  free  transition at x/c =  0.8055   70

 100   rms: 0.3273E-02   max: -.4725E-01   C at   70  2
       a = -1.500      CL =  0.0348
      Cm = -0.0369     CD =  0.00978   =>   CDf =  0.00489    CDp =  0.00489

 Side 1  free  transition at x/c =  0.8843   71
 Side 2  free  transition at x/c =  0.8055   70

 101   rms: 0.3273E-02   max: -.4724E-01   C at   70  2
       a = -1.500      CL =  0.0348
      Cm = -0.0369     CD =  0.00978   =>   CDf =  0.00489    CDp =  0.00489

 Side 1  free  transition at x/c =  0.8843   71
 Side 2  free  transition at x/c =  0.8055   70

 102   rms: 0.3274E-02   max: -.4725E-01   C at   70  2
       a = -1.500      CL =  0.0348
      Cm = -0.0369     CD =  0.00978   =>   CDf =  0.00489    CDp =  0.00489

 Side 1  free  transition at x/c =  0.8843   71
 Side 2  free  transition at x/c =  0.8055   70

 103   rms: 0.3273E-02   max: -.4725E-01   C at   70  2
       a = -1.500      CL =  0.0348
      Cm = -0.0369     CD =  0.00978   =>   CDf =  0.00489    CDp =  0.00489

 Side 1  free  transition at x/c =  0.8843   71
 Side 2  free  transition at x/c =  0.8055   70

 104   rms: 0.3273E-02   max: -.4725E-01   C at   70  2
       a = -1.500      CL =  0.0348
      Cm = -0.0369     CD =  0.00978   =>   CDf =  0.00489    CDp =  0.00489

 Side 1  free  transition at x/c =  0.8843   71
 Side 2  free  transition at x/c =  0.8055   70

 105   rms: 0.3274E-02   max: -.4725E-01   C at   70  2
       a = -1.500      CL =  0.0348
      Cm = -0.0369     CD =  0.00978   =>   CDf =  0.00489    CDp =  0.00489

 Side 1  free  transition at x/c =  0.8843   71
 Side 2  free  transition at x/c =  0.8055   70

 106   rms: 0.3273E-02   max: -.4725E-01   C at   70  2
       a = -1.500      CL =  0.0348
      Cm = -0.0369     CD =  0.00978   =>   CDf =  0.00489    CDp =  0.00489

 Side 1  free  transition at x/c =  0.8843   71
 Side 2  free  transition at x/c =  0.8055   70

 107   rms: 0.3273E-02   max: -.4725E-01   C at   70  2
       a = -1.500      CL =  0.0348
      Cm = -0.0369     CD =  0.00978   =>   CDf =  0.00489    CDp =  0.00489

 Side 1  free  transition at x/c =  0.8843   71
 Side 2  free  transition at x/c =  0.8055   70

 108   rms: 0.3274E-02   max: -.4725E-01   C at   70  2
       a = -1.500      CL =  0.0348
      Cm = -0.0369     CD =  0.00978   =>   CDf =  0.00489    CDp =  0.00489

 Side 1  free  transition at x/c =  0.8843   71
 Side 2  free  transition at x/c =  0.8055   70

 109   rms: 0.3273E-02   max: -.4725E-01   C at   70  2
       a = -1.500      CL =  0.0348
      Cm = -0.0369     CD =  0.00978   =>   CDf =  0.00489    CDp =  0.00489

 Side 1  free  transition at x/c =  0.8843   71
 Side 2  free  transition at x/c =  0.8055   70

 110   rms: 0.3273E-02   max: -.4725E-01   C at   70  2
       a = -1.500      CL =  0.0348
      Cm = -0.0369     CD =  0.00978   =>   CDf =  0.00489    CDp =  0.00489

 Side 1  free  transition at x/c =  0.8843   71
 Side 2  free  transition at x/c =  0.8055   70

 111   rms: 0.3273E-02   max: -.4725E-01   C at   70  2
       a = -1.500      CL =  0.0348
      Cm = -0.0369     CD =  0.00978   =>   CDf =  0.00489    CDp =  0.00489

 Side 1  free  transition at x/c =  0.8843   71
 Side 2  free  transition at x/c =  0.8055   70

 112   rms: 0.3274E-02   max: -.4725E-01   C at   70  2
       a = -1.500      CL =  0.0348
      Cm = -0.0369     CD =  0.00978   =>   CDf =  0.00489    CDp =  0.00489

 Side 1  free  transition at x/c =  0.8843   71
 Side 2  free  transition at x/c =  0.8055   70

 113   rms: 0.3274E-02   max: -.4725E-01   C at   70  2
       a = -1.500      CL =  0.0348
      Cm = -0.0369     CD =  0.00978   =>   CDf =  0.00489    CDp =  0.00489

 Side 1  free  transition at x/c =  0.8843   71
 Side 2  free  transition at x/c =  0.8055   70

 114   rms: 0.3273E-02   max: -.4725E-01   C at   70  2
       a = -1.500      CL =  0.0348
      Cm = -0.0369     CD =  0.00978   =>   CDf =  0.00489    CDp =  0.00489

 Side 1  free  transition at x/c =  0.8843   71
 Side 2  free  transition at x/c =  0.8055   70

 115   rms: 0.3274E-02   max: -.4725E-01   C at   70  2
       a = -1.500      CL =  0.0348
      Cm = -0.0369     CD =  0.00978   =>   CDf =  0.00489    CDp =  0.00489

 Side 1  free  transition at x/c =  0.8843   71
 Side 2  free  transition at x/c =  0.8055   70

 116   rms: 0.3274E-02   max: -.4725E-01   C at   70  2
       a = -1.500      CL =  0.0348
      Cm = -0.0369     CD =  0.00978   =>   CDf =  0.00489    CDp =  0.00489

 Side 1  free  transition at x/c =  0.8843   71
 Side 2  free  transition at x/c =  0.8055   70

 117   rms: 0.3273E-02   max: -.4725E-01   C at   70  2
       a = -1.500      CL =  0.0348
      Cm = -0.0369     CD =  0.00978   =>   CDf =  0.00489    CDp =  0.00489

 Side 1  free  transition at x/c =  0.8843   71
 Side 2  free  transition at x/c =  0.8055   70

 118   rms: 0.3273E-02   max: -.4724E-01   C at   70  2
       a = -1.500      CL =  0.0348
      Cm = -0.0369     CD =  0.00978   =>   CDf =  0.00489    CDp =  0.00489

 Side 1  free  transition at x/c =  0.8843   71
 Side 2  free  transition at x/c =  0.8055   70

 119   rms: 0.3274E-02   max: -.4726E-01   C at   70  2
       a = -1.500      CL =  0.0348
      Cm = -0.0369     CD =  0.00978   =>   CDf =  0.00489    CDp =  0.00489

 Side 1  free  transition at x/c =  0.8843   71
 Side 2  free  transition at x/c =  0.8055   70

 120   rms: 0.3274E-02   max: -.4725E-01   C at   70  2
       a = -1.500      CL =  0.0348
      Cm = -0.0369     CD =  0.00978   =>   CDf =  0.00489    CDp =  0.00489

 Side 1  free  transition at x/c =  0.8843   71
 Side 2  free  transition at x/c =  0.8055   70

 121   rms: 0.3274E-02   max: -.4725E-01   C at   70  2
       a = -1.500      CL =  0.0348
      Cm = -0.0369     CD =  0.00978   =>   CDf =  0.00489    CDp =  0.00489

 Side 1  free  transition at x/c =  0.8843   71
 Side 2  free  transition at x/c =  0.8055   70

 122   rms: 0.3273E-02   max: -.4725E-01   C at   70  2
       a = -1.500      CL =  0.0348
      Cm = -0.0369     CD =  0.00978   =>   CDf =  0.00489    CDp =  0.00489

 Side 1  free  transition at x/c =  0.8843   71
 Side 2  free  transition at x/c =  0.8055   70

 123   rms: 0.3274E-02   max: -.4725E-01   C at   70  2
       a = -1.500      CL =  0.0348
      Cm = -0.0369     CD =  0.00978   =>   CDf =  0.00489    CDp =  0.00489

 Side 1  free  transition at x/c =  0.8843   71
 Side 2  free  transition at x/c =  0.8055   70

 124   rms: 0.3273E-02   max: -.4725E-01   C at   70  2
       a = -1.500      CL =  0.0348
      Cm = -0.0369     CD =  0.00978   =>   CDf =  0.00489    CDp =  0.00489

 Side 1  free  transition at x/c =  0.8843   71
 Side 2  free  transition at x/c =  0.8055   70

 125   rms: 0.3273E-02   max: -.4725E-01   C at   70  2
       a = -1.500      CL =  0.0348
      Cm = -0.0369     CD =  0.00978   =>   CDf =  0.00489    CDp =  0.00489

 Side 1  free  transition at x/c =  0.8843   71
 Side 2  free  transition at x/c =  0.8055   70

 126   rms: 0.3274E-02   max: -.4725E-01   C at   70  2
       a = -1.500      CL =  0.0348
      Cm = -0.0369     CD =  0.00978   =>   CDf =  0.00489    CDp =  0.00489

 Side 1  free  transition at x/c =  0.8843   71
 Side 2  free  transition at x/c =  0.8055   70

 127   rms: 0.3274E-02   max: -.4725E-01   C at   70  2
       a = -1.500      CL =  0.0348
      Cm = -0.0369     CD =  0.00978   =>   CDf =  0.00489    CDp =  0.00489

 Side 1  free  transition at x/c =  0.8843   71
 Side 2  free  transition at x/c =  0.8055   70

 128   rms: 0.3274E-02   max: -.4725E-01   C at   70  2
       a = -1.500      CL =  0.0348
      Cm = -0.0369     CD =  0.00978   =>   CDf =  0.00489    CDp =  0.00489

 Side 1  free  transition at x/c =  0.8843   71
 Side 2  free  transition at x/c =  0.8055   70

 129   rms: 0.3273E-02   max: -.4725E-01   C at   70  2
       a = -1.500      CL =  0.0348
      Cm = -0.0369     CD =  0.00978   =>   CDf =  0.00489    CDp =  0.00489

 Side 1  free  transition at x/c =  0.8843   71
 Side 2  free  transition at x/c =  0.8055   70

 130   rms: 0.3273E-02   max: -.4725E-01   C at   70  2
       a = -1.500      CL =  0.0348
      Cm = -0.0369     CD =  0.00978   =>   CDf =  0.00489    CDp =  0.00489

 Side 1  free  transition at x/c =  0.8843   71
 Side 2  free  transition at x/c =  0.8055   70

 131   rms: 0.3274E-02   max: -.4725E-01   C at   70  2
       a = -1.500      CL =  0.0348
      Cm = -0.0369     CD =  0.00978   =>   CDf =  0.00489    CDp =  0.00489

 Side 1  free  transition at x/c =  0.8843   71
 Side 2  free  transition at x/c =  0.8055   70

 132   rms: 0.3274E-02   max: -.4725E-01   C at   70  2
       a = -1.500      CL =  0.0348
      Cm = -0.0369     CD =  0.00978   =>   CDf =  0.00489    CDp =  0.00489

 Side 1  free  transition at x/c =  0.8843   71
 Side 2  free  transition at x/c =  0.8055   70

 133   rms: 0.3273E-02   max: -.4724E-01   C at   70  2
       a = -1.500      CL =  0.0348
      Cm = -0.0369     CD =  0.00978   =>   CDf =  0.00489    CDp =  0.00489

 Side 1  free  transition at x/c =  0.8843   71
 Side 2  free  transition at x/c =  0.8055   70

 134   rms: 0.3274E-02   max: -.4725E-01   C at   70  2
       a = -1.500      CL =  0.0348
      Cm = -0.0369     CD =  0.00978   =>   CDf =  0.00489    CDp =  0.00489

 Side 1  free  transition at x/c =  0.8843   71
 Side 2  free  transition at x/c =  0.8055   70

 135   rms: 0.3273E-02   max: -.4725E-01   C at   70  2
       a = -1.500      CL =  0.0348
      Cm = -0.0369     CD =  0.00978   =>   CDf =  0.00489    CDp =  0.00489

 Side 1  free  transition at x/c =  0.8843   71
 Side 2  free  transition at x/c =  0.8055   70

 136   rms: 0.3274E-02   max: -.4725E-01   C at   70  2
       a = -1.500      CL =  0.0348
      Cm = -0.0369     CD =  0.00978   =>   CDf =  0.00489    CDp =  0.00489

 Side 1  free  transition at x/c =  0.8843   71
 Side 2  free  transition at x/c =  0.8055   70

 137   rms: 0.3274E-02   max: -.4725E-01   C at   70  2
       a = -1.500      CL =  0.0348
      Cm = -0.0369     CD =  0.00978   =>   CDf =  0.00489    CDp =  0.00489

 Side 1  free  transition at x/c =  0.8843   71
 Side 2  free  transition at x/c =  0.8055   70

 138   rms: 0.3273E-02   max: -.4725E-01   C at   70  2
       a = -1.500      CL =  0.0348
      Cm = -0.0369     CD =  0.00978   =>   CDf =  0.00489    CDp =  0.00489

 Side 1  free  transition at x/c =  0.8843   71
 Side 2  free  transition at x/c =  0.8055   70

 139   rms: 0.3273E-02   max: -.4725E-01   C at   70  2
       a = -1.500      CL =  0.0348
      Cm = -0.0369     CD =  0.00978   =>   CDf =  0.00489    CDp =  0.00489

 Side 1  free  transition at x/c =  0.8843   71
 Side 2  free  transition at x/c =  0.8055   70

 140   rms: 0.3274E-02   max: -.4725E-01   C at   70  2
       a = -1.500      CL =  0.0348
      Cm = -0.0369     CD =  0.00978   =>   CDf =  0.00489    CDp =  0.00489

 Side 1  free  transition at x/c =  0.8843   71
 Side 2  free  transition at x/c =  0.8055   70

 141   rms: 0.3274E-02   max: -.4725E-01   C at   70  2
       a = -1.500      CL =  0.0348
      Cm = -0.0369     CD =  0.00978   =>   CDf =  0.00489    CDp =  0.00489

 Side 1  free  transition at x/c =  0.8843   71
 Side 2  free  transition at x/c =  0.8055   70

 142   rms: 0.3273E-02   max: -.4725E-01   C at   70  2
       a = -1.500      CL =  0.0348
      Cm = -0.0369     CD =  0.00978   =>   CDf =  0.00489    CDp =  0.00489

 Side 1  free  transition at x/c =  0.8843   71
 Side 2  free  transition at x/c =  0.8055   70

 143   rms: 0.3273E-02   max: -.4725E-01   C at   70  2
       a = -1.500      CL =  0.0348
      Cm = -0.0369     CD =  0.00978   =>   CDf =  0.00489    CDp =  0.00489

 Side 1  free  transition at x/c =  0.8843   71
 Side 2  free  transition at x/c =  0.8055   70

 144   rms: 0.3274E-02   max: -.4725E-01   C at   70  2
       a = -1.500      CL =  0.0348
      Cm = -0.0369     CD =  0.00978   =>   CDf =  0.00489    CDp =  0.00489

 Side 1  free  transition at x/c =  0.8843   71
 Side 2  free  transition at x/c =  0.8055   70

 145   rms: 0.3273E-02   max: -.4724E-01   C at   70  2
       a = -1.500      CL =  0.0348
      Cm = -0.0369     CD =  0.00978   =>   CDf =  0.00489    CDp =  0.00489

 Side 1  free  transition at x/c =  0.8843   71
 Side 2  free  transition at x/c =  0.8055   70

 146   rms: 0.3274E-02   max: -.4725E-01   C at   70  2
       a = -1.500      CL =  0.0348
      Cm = -0.0369     CD =  0.00978   =>   CDf =  0.00489    CDp =  0.00489

 Side 1  free  transition at x/c =  0.8843   71
 Side 2  free  transition at x/c =  0.8055   70

 147   rms: 0.3274E-02   max: -.4725E-01   C at   70  2
       a = -1.500      CL =  0.0348
      Cm = -0.0369     CD =  0.00978   =>   CDf =  0.00489    CDp =  0.00489

 Side 1  free  transition at x/c =  0.8843   71
 Side 2  free  transition at x/c =  0.8055   70

 148   rms: 0.3273E-02   max: -.4725E-01   C at   70  2
       a = -1.500      CL =  0.0348
      Cm = -0.0369     CD =  0.00978   =>   CDf =  0.00489    CDp =  0.00489

 Side 1  free  transition at x/c =  0.8843   71
 Side 2  free  transition at x/c =  0.8055   70

 149   rms: 0.3274E-02   max: -.4725E-01   C at   70  2
       a = -1.500      CL =  0.0348
      Cm = -0.0369     CD =  0.00978   =>   CDf =  0.00489    CDp =  0.00489

 Side 1  free  transition at x/c =  0.8843   71
 Side 2  free  transition at x/c =  0.8055   70

 150   rms: 0.3274E-02   max: -.4725E-01   C at   70  2
       a = -1.500      CL =  0.0348
      Cm = -0.0369     CD =  0.00978   =>   CDf =  0.00489    CDp =  0.00489

 Side 1  free  transition at x/c =  0.8843   71
 Side 2  free  transition at x/c =  0.8055   70

 151   rms: 0.3274E-02   max: -.4725E-01   C at   70  2
       a = -1.500      CL =  0.0348
      Cm = -0.0369     CD =  0.00978   =>   CDf =  0.00489    CDp =  0.00489

 Side 1  free  transition at x/c =  0.8843   71
 Side 2  free  transition at x/c =  0.8055   70

 152   rms: 0.3273E-02   max: -.4724E-01   C at   70  2
       a = -1.500      CL =  0.0348
      Cm = -0.0369     CD =  0.00978   =>   CDf =  0.00489    CDp =  0.00489

 Side 1  free  transition at x/c =  0.8843   71
 Side 2  free  transition at x/c =  0.8055   70

 153   rms: 0.3274E-02   max: -.4725E-01   C at   70  2
       a = -1.500      CL =  0.0348
      Cm = -0.0369     CD =  0.00978   =>   CDf =  0.00489    CDp =  0.00489

 Side 1  free  transition at x/c =  0.8843   71
 Side 2  free  transition at x/c =  0.8055   70

 154   rms: 0.3273E-02   max: -.4725E-01   C at   70  2
       a = -1.500      CL =  0.0348
      Cm = -0.0369     CD =  0.00978   =>   CDf =  0.00489    CDp =  0.00489

 Side 1  free  transition at x/c =  0.8843   71
 Side 2  free  transition at x/c =  0.8055   70

 155   rms: 0.3273E-02   max: -.4725E-01   C at   70  2
       a = -1.500      CL =  0.0348
      Cm = -0.0369     CD =  0.00978   =>   CDf =  0.00489    CDp =  0.00489

 Side 1  free  transition at x/c =  0.8843   71
 Side 2  free  transition at x/c =  0.8055   70

 156   rms: 0.3274E-02   max: -.4725E-01   C at   70  2
       a = -1.500      CL =  0.0348
      Cm = -0.0369     CD =  0.00978   =>   CDf =  0.00489    CDp =  0.00489

 Side 1  free  transition at x/c =  0.8843   71
 Side 2  free  transition at x/c =  0.8055   70

 157   rms: 0.3274E-02   max: -.4725E-01   C at   70  2
       a = -1.500      CL =  0.0348
      Cm = -0.0369     CD =  0.00978   =>   CDf =  0.00489    CDp =  0.00489

 Side 1  free  transition at x/c =  0.8843   71
 Side 2  free  transition at x/c =  0.8055   70

 158   rms: 0.3274E-02   max: -.4725E-01   C at   70  2
       a = -1.500      CL =  0.0348
      Cm = -0.0369     CD =  0.00978   =>   CDf =  0.00489    CDp =  0.00489

 Side 1  free  transition at x/c =  0.8843   71
 Side 2  free  transition at x/c =  0.8055   70

 159   rms: 0.3273E-02   max: -.4725E-01   C at   70  2
       a = -1.500      CL =  0.0348
      Cm = -0.0369     CD =  0.00978   =>   CDf =  0.00489    CDp =  0.00489

 Side 1  free  transition at x/c =  0.8843   71
 Side 2  free  transition at x/c =  0.8055   70

 160   rms: 0.3274E-02   max: -.4725E-01   C at   70  2
       a = -1.500      CL =  0.0348
      Cm = -0.0369     CD =  0.00978   =>   CDf =  0.00489    CDp =  0.00489

 Side 1  free  transition at x/c =  0.8843   71
 Side 2  free  transition at x/c =  0.8055   70

 161   rms: 0.3274E-02   max: -.4725E-01   C at   70  2
       a = -1.500      CL =  0.0348
      Cm = -0.0369     CD =  0.00978   =>   CDf =  0.00489    CDp =  0.00489

 Side 1  free  transition at x/c =  0.8843   71
 Side 2  free  transition at x/c =  0.8055   70

 162   rms: 0.3273E-02   max: -.4724E-01   C at   70  2
       a = -1.500      CL =  0.0348
      Cm = -0.0369     CD =  0.00978   =>   CDf =  0.00489    CDp =  0.00489

 Side 1  free  transition at x/c =  0.8843   71
 Side 2  free  transition at x/c =  0.8055   70

 163   rms: 0.3273E-02   max: -.4725E-01   C at   70  2
       a = -1.500      CL =  0.0348
      Cm = -0.0369     CD =  0.00978   =>   CDf =  0.00489    CDp =  0.00489

 Side 1  free  transition at x/c =  0.8843   71
 Side 2  free  transition at x/c =  0.8055   70

 164   rms: 0.3273E-02   max: -.4724E-01   C at   70  2
       a = -1.500      CL =  0.0348
      Cm = -0.0369     CD =  0.00978   =>   CDf =  0.00489    CDp =  0.00489

 Side 1  free  transition at x/c =  0.8843   71
 Side 2  free  transition at x/c =  0.8055   70

 165   rms: 0.3274E-02   max: -.4725E-01   C at   70  2
       a = -1.500      CL =  0.0348
      Cm = -0.0369     CD =  0.00978   =>   CDf =  0.00489    CDp =  0.00489

 Side 1  free  transition at x/c =  0.8843   71
 Side 2  free  transition at x/c =  0.8055   70

 166   rms: 0.3273E-02   max: -.4725E-01   C at   70  2
       a = -1.500      CL =  0.0348
      Cm = -0.0369     CD =  0.00978   =>   CDf =  0.00489    CDp =  0.00489

 Side 1  free  transition at x/c =  0.8843   71
 Side 2  free  transition at x/c =  0.8055   70

 167   rms: 0.3274E-02   max: -.4725E-01   C at   70  2
       a = -1.500      CL =  0.0348
      Cm = -0.0369     CD =  0.00978   =>   CDf =  0.00489    CDp =  0.00489

 Side 1  free  transition at x/c =  0.8843   71
 Side 2  free  transition at x/c =  0.8055   70

 168   rms: 0.3273E-02   max: -.4724E-01   C at   70  2
       a = -1.500      CL =  0.0348
      Cm = -0.0369     CD =  0.00978   =>   CDf =  0.00489    CDp =  0.00489

 Side 1  free  transition at x/c =  0.8843   71
 Side 2  free  transition at x/c =  0.8055   70

 169   rms: 0.3274E-02   max: -.4725E-01   C at   70  2
       a = -1.500      CL =  0.0348
      Cm = -0.0369     CD =  0.00978   =>   CDf =  0.00489    CDp =  0.00489

 Side 1  free  transition at x/c =  0.8843   71
 Side 2  free  transition at x/c =  0.8055   70

 170   rms: 0.3274E-02   max: -.4725E-01   C at   70  2
       a = -1.500      CL =  0.0348
      Cm = -0.0369     CD =  0.00978   =>   CDf =  0.00489    CDp =  0.00489

 Side 1  free  transition at x/c =  0.8843   71
 Side 2  free  transition at x/c =  0.8055   70

 171   rms: 0.3273E-02   max: -.4725E-01   C at   70  2
       a = -1.500      CL =  0.0348
      Cm = -0.0369     CD =  0.00978   =>   CDf =  0.00489    CDp =  0.00489

 Side 1  free  transition at x/c =  0.8843   71
 Side 2  free  transition at x/c =  0.8055   70

 172   rms: 0.3273E-02   max: -.4725E-01   C at   70  2
       a = -1.500      CL =  0.0348
      Cm = -0.0369     CD =  0.00978   =>   CDf =  0.00489    CDp =  0.00489

 Side 1  free  transition at x/c =  0.8843   71
 Side 2  free  transition at x/c =  0.8055   70

 173   rms: 0.3274E-02   max: -.4725E-01   C at   70  2
       a = -1.500      CL =  0.0348
      Cm = -0.0369     CD =  0.00978   =>   CDf =  0.00489    CDp =  0.00489

 Side 1  free  transition at x/c =  0.8843   71
 Side 2  free  transition at x/c =  0.8055   70

 174   rms: 0.3273E-02   max: -.4725E-01   C at   70  2
       a = -1.500      CL =  0.0348
      Cm = -0.0369     CD =  0.00978   =>   CDf =  0.00489    CDp =  0.00489

 Side 1  free  transition at x/c =  0.8843   71
 Side 2  free  transition at x/c =  0.8055   70

 175   rms: 0.3274E-02   max: -.4725E-01   C at   70  2
       a = -1.500      CL =  0.0348
      Cm = -0.0369     CD =  0.00978   =>   CDf =  0.00489    CDp =  0.00489

 Side 1  free  transition at x/c =  0.8843   71
 Side 2  free  transition at x/c =  0.8055   70

 176   rms: 0.3273E-02   max: -.4725E-01   C at   70  2
       a = -1.500      CL =  0.0348
      Cm = -0.0369     CD =  0.00978   =>   CDf =  0.00489    CDp =  0.00489

 Side 1  free  transition at x/c =  0.8843   71
 Side 2  free  transition at x/c =  0.8055   70

 177   rms: 0.3274E-02   max: -.4725E-01   C at   70  2
       a = -1.500      CL =  0.0348
      Cm = -0.0369     CD =  0.00978   =>   CDf =  0.00489    CDp =  0.00489

 Side 1  free  transition at x/c =  0.8843   71
 Side 2  free  transition at x/c =  0.8055   70

 178   rms: 0.3273E-02   max: -.4725E-01   C at   70  2
       a = -1.500      CL =  0.0348
      Cm = -0.0369     CD =  0.00978   =>   CDf =  0.00489    CDp =  0.00489

 Side 1  free  transition at x/c =  0.8843   71
 Side 2  free  transition at x/c =  0.8055   70

 179   rms: 0.3273E-02   max: -.4725E-01   C at   70  2
       a = -1.500      CL =  0.0348
      Cm = -0.0369     CD =  0.00978   =>   CDf =  0.00489    CDp =  0.00489

 Side 1  free  transition at x/c =  0.8843   71
 Side 2  free  transition at x/c =  0.8055   70

 180   rms: 0.3273E-02   max: -.4725E-01   C at   70  2
       a = -1.500      CL =  0.0348
      Cm = -0.0369     CD =  0.00978   =>   CDf =  0.00489    CDp =  0.00489

 Side 1  free  transition at x/c =  0.8843   71
 Side 2  free  transition at x/c =  0.8055   70

 181   rms: 0.3273E-02   max: -.4724E-01   C at   70  2
       a = -1.500      CL =  0.0348
      Cm = -0.0369     CD =  0.00978   =>   CDf =  0.00489    CDp =  0.00489

 Side 1  free  transition at x/c =  0.8843   71
 Side 2  free  transition at x/c =  0.8055   70

 182   rms: 0.3274E-02   max: -.4725E-01   C at   70  2
       a = -1.500      CL =  0.0348
      Cm = -0.0369     CD =  0.00978   =>   CDf =  0.00489    CDp =  0.00489

 Side 1  free  transition at x/c =  0.8843   71
 Side 2  free  transition at x/c =  0.8055   70

 183   rms: 0.3274E-02   max: -.4725E-01   C at   70  2
       a = -1.500      CL =  0.0348
      Cm = -0.0369     CD =  0.00978   =>   CDf =  0.00489    CDp =  0.00489

 Side 1  free  transition at x/c =  0.8843   71
 Side 2  free  transition at x/c =  0.8055   70

 184   rms: 0.3273E-02   max: -.4724E-01   C at   70  2
       a = -1.500      CL =  0.0348
      Cm = -0.0369     CD =  0.00978   =>   CDf =  0.00489    CDp =  0.00489

 Side 1  free  transition at x/c =  0.8843   71
 Side 2  free  transition at x/c =  0.8055   70

 185   rms: 0.3274E-02   max: -.4725E-01   C at   70  2
       a = -1.500      CL =  0.0348
      Cm = -0.0369     CD =  0.00978   =>   CDf =  0.00489    CDp =  0.00489

 Side 1  free  transition at x/c =  0.8843   71
 Side 2  free  transition at x/c =  0.8055   70

 186   rms: 0.3274E-02   max: -.4725E-01   C at   70  2
       a = -1.500      CL =  0.0348
      Cm = -0.0369     CD =  0.00978   =>   CDf =  0.00489    CDp =  0.00489

 Side 1  free  transition at x/c =  0.8843   71
 Side 2  free  transition at x/c =  0.8055   70

 187   rms: 0.3274E-02   max: -.4725E-01   C at   70  2
       a = -1.500      CL =  0.0348
      Cm = -0.0369     CD =  0.00978   =>   CDf =  0.00489    CDp =  0.00489

 Side 1  free  transition at x/c =  0.8843   71
 Side 2  free  transition at x/c =  0.8055   70

 188   rms: 0.3273E-02   max: -.4725E-01   C at   70  2
       a = -1.500      CL =  0.0348
      Cm = -0.0369     CD =  0.00978   =>   CDf =  0.00489    CDp =  0.00489

 Side 1  free  transition at x/c =  0.8843   71
 Side 2  free  transition at x/c =  0.8055   70

 189   rms: 0.3274E-02   max: -.4725E-01   C at   70  2
       a = -1.500      CL =  0.0348
      Cm = -0.0369     CD =  0.00978   =>   CDf =  0.00489    CDp =  0.00489

 Side 1  free  transition at x/c =  0.8843   71
 Side 2  free  transition at x/c =  0.8055   70

 190   rms: 0.3274E-02   max: -.4725E-01   C at   70  2
       a = -1.500      CL =  0.0348
      Cm = -0.0369     CD =  0.00978   =>   CDf =  0.00489    CDp =  0.00489

 Side 1  free  transition at x/c =  0.8843   71
 Side 2  free  transition at x/c =  0.8055   70

 191   rms: 0.3274E-02   max: -.4725E-01   C at   70  2
       a = -1.500      CL =  0.0348
      Cm = -0.0369     CD =  0.00978   =>   CDf =  0.00489    CDp =  0.00489

 Side 1  free  transition at x/c =  0.8843   71
 Side 2  free  transition at x/c =  0.8055   70

 192   rms: 0.3274E-02   max: -.4725E-01   C at   70  2
       a = -1.500      CL =  0.0348
      Cm = -0.0369     CD =  0.00978   =>   CDf =  0.00489    CDp =  0.00489

 Side 1  free  transition at x/c =  0.8843   71
 Side 2  free  transition at x/c =  0.8055   70

 193   rms: 0.3274E-02   max: -.4725E-01   C at   70  2
       a = -1.500      CL =  0.0348
      Cm = -0.0369     CD =  0.00978   =>   CDf =  0.00489    CDp =  0.00489

 Side 1  free  transition at x/c =  0.8843   71
 Side 2  free  transition at x/c =  0.8055   70

 194   rms: 0.3274E-02   max: -.4725E-01   C at   70  2
       a = -1.500      CL =  0.0348
      Cm = -0.0369     CD =  0.00978   =>   CDf =  0.00489    CDp =  0.00489

 Side 1  free  transition at x/c =  0.8843   71
 Side 2  free  transition at x/c =  0.8055   70

 195   rms: 0.3273E-02   max: -.4725E-01   C at   70  2
       a = -1.500      CL =  0.0348
      Cm = -0.0369     CD =  0.00978   =>   CDf =  0.00489    CDp =  0.00489

 Side 1  free  transition at x/c =  0.8843   71
 Side 2  free  transition at x/c =  0.8055   70

 196   rms: 0.3273E-02   max: -.4725E-01   C at   70  2
       a = -1.500      CL =  0.0348
      Cm = -0.0369     CD =  0.00978   =>   CDf =  0.00489    CDp =  0.00489

 Side 1  free  transition at x/c =  0.8843   71
 Side 2  free  transition at x/c =  0.8055   70

 197   rms: 0.3274E-02   max: -.4725E-01   C at   70  2
       a = -1.500      CL =  0.0348
      Cm = -0.0369     CD =  0.00978   =>   CDf =  0.00489    CDp =  0.00489

 Side 1  free  transition at x/c =  0.8843   71
 Side 2  free  transition at x/c =  0.8055   70

 198   rms: 0.3274E-02   max: -.4725E-01   C at   70  2
       a = -1.500      CL =  0.0348
      Cm = -0.0369     CD =  0.00978   =>   CDf =  0.00489    CDp =  0.00489

 Side 1  free  transition at x/c =  0.8843   71
 Side 2  free  transition at x/c =  0.8055   70

 199   rms: 0.3273E-02   max: -.4725E-01   C at   70  2
       a = -1.500      CL =  0.0348
      Cm = -0.0369     CD =  0.00978   =>   CDf =  0.00489    CDp =  0.00489

 Side 1  free  transition at x/c =  0.8843   71
 Side 2  free  transition at x/c =  0.8055   70

 200   rms: 0.3274E-02   max: -.4725E-01   C at   70  2
       a = -1.500      CL =  0.0348
      Cm = -0.0369     CD =  0.00978   =>   CDf =  0.00489    CDp =  0.00489

 Side 1  free  transition at x/c =  0.8843   71
 Side 2  free  transition at x/c =  0.8055   70

 201   rms: 0.3274E-02   max: -.4725E-01   C at   70  2
       a = -1.500      CL =  0.0348
      Cm = -0.0369     CD =  0.00978   =>   CDf =  0.00489    CDp =  0.00489

 Side 1  free  transition at x/c =  0.8843   71
 Side 2  free  transition at x/c =  0.8055   70

 202   rms: 0.3273E-02   max: -.4725E-01   C at   70  2
       a = -1.500      CL =  0.0348
      Cm = -0.0369     CD =  0.00978   =>   CDf =  0.00489    CDp =  0.00489

 Side 1  free  transition at x/c =  0.8843   71
 Side 2  free  transition at x/c =  0.8055   70

 203   rms: 0.3273E-02   max: -.4725E-01   C at   70  2
       a = -1.500      CL =  0.0348
      Cm = -0.0369     CD =  0.00978   =>   CDf =  0.00489    CDp =  0.00489

 Side 1  free  transition at x/c =  0.8843   71
 Side 2  free  transition at x/c =  0.8055   70

 204   rms: 0.3273E-02   max: -.4725E-01   C at   70  2
       a = -1.500      CL =  0.0348
      Cm = -0.0369     CD =  0.00978   =>   CDf =  0.00489    CDp =  0.00489

 Side 1  free  transition at x/c =  0.8843   71
 Side 2  free  transition at x/c =  0.8055   70

 205   rms: 0.3274E-02   max: -.4725E-01   C at   70  2
       a = -1.500      CL =  0.0348
      Cm = -0.0369     CD =  0.00978   =>   CDf =  0.00489    CDp =  0.00489
 VISCAL:  Convergence failed
 Calculating wake trajectory ...
 Calculating source influence matrix ...

 Solving BL system ...

 Side 1  free  transition at x/c =  0.8843   71
 Side 2  free  transition at x/c =  0.8055   70

   1   rms: 0.1005E+00   max: -.4058E+00   T at   70  2
       a = -1.000      CL =  0.0832
      Cm = -0.0336     CD =  0.00952   =>   CDf =  0.00487    CDp =  0.00465

 MRCHDU: Convergence failed at  75  side 2    Res =  0.1488E+02
 MRCHDU: Convergence failed at  76  side 2    Res =  0.2174E+01
 MRCHDU: Convergence failed at  77  side 2    Res =  0.1415E+01
 MRCHDU: Convergence failed at  78  side 2    Res =  0.1394E+01
 MRCHDU: Convergence failed at  79  side 2    Res =  0.2054E+01
 MRCHDU: Convergence failed at  80  side 2    Res =  0.2444E+01
 MRCHDU: Convergence failed at  81  side 2    Res =  0.2754E+01
 MRCHDU: Convergence failed at  82  side 2    Res =  0.5555E+01
 Side 1  free  transition at x/c =  0.8547   70
 Side 2 forced transition at x/c =  1.0000   82

   2   rms: 0.1738E+00   max: 0.1812E+01   C at   82  2   RLX: 0.828
       a = -1.000      CL =  0.1598
      Cm = -0.0465     CD =  0.00858   =>   CDf =  0.00495    CDp =  0.00363

 Side 1  free  transition at x/c =  0.8695   71
 Side 2  free  transition at x/c =  0.9357   77

   3   rms: 0.9271E-01   max: -.5700E+00   C at   77  2   RLX: 0.877
       a = -1.000      CL =  0.1131
      Cm = -0.0383     CD =  0.00940   =>   CDf =  0.00484    CDp =  0.00456

 Side 1  free  transition at x/c =  0.8591   70
 Side 2  free  transition at x/c =  0.8926   75

   4   rms: 0.3567E-01   max: -.3491E+00   D at   76  2
       a = -1.000      CL =  0.0900
      Cm = -0.0342     CD =  0.00965   =>   CDf =  0.00484    CDp =  0.00481

 Side 1  free  transition at x/c =  0.8562   70
 Side 2  free  transition at x/c =  0.8972   75

   5   rms: 0.7779E-02   max: 0.8323E-01   C at   75  2
       a = -1.000      CL =  0.0903
      Cm = -0.0342     CD =  0.00967   =>   CDf =  0.00483    CDp =  0.00484

 Side 1  free  transition at x/c =  0.8564   70
 Side 2  free  transition at x/c =  0.8933   75

   6   rms: 0.6334E-03   max: -.3613E-02   D at   82  2
       a = -1.000      CL =  0.0910
      Cm = -0.0343     CD =  0.00968   =>   CDf =  0.00483    CDp =  0.00485

 Side 1  free  transition at x/c =  0.8565   70
 Side 2  free  transition at x/c =  0.8933   75

   7   rms: 0.2637E-05   max: -.1467E-04   D at   80  1
       a = -1.000      CL =  0.0910
      Cm = -0.0343     CD =  0.00968   =>   CDf =  0.00483    CDp =  0.00484
 plradd ia,ip,cpol            2           0  1.59548260E-02

 Point added to stored polar  1
 Point written to save file  NACA2212Pol                                     
 Dump file unspecified or not available
 Calculating wake trajectory ...
 Calculating source influence matrix ...

 Solving BL system ...

 Side 1  free  transition at x/c =  0.8565   70
 Side 2  free  transition at x/c =  0.8933   75

   1   rms: 0.1129E+00   max: 0.5054E+00   D at   78  2
       a = -0.500      CL =  0.1557
      Cm = -0.0338     CD =  0.00980   =>   CDf =  0.00484    CDp =  0.00496

 Side 1  free  transition at x/c =  0.8155   69
 Side 2  free  transition at x/c =  0.9339   76

   2   rms: 0.4215E-01   max: -.3312E+00   D at   70  1
       a = -0.500      CL =  0.1533
      Cm = -0.0334     CD =  0.00974   =>   CDf =  0.00505    CDp =  0.00469

 Side 1  free  transition at x/c =  0.8254   69
 Side 2  free  transition at x/c =  0.9554   77

   3   rms: 0.2639E-01   max: 0.2087E+00   D at   79  2
       a = -0.500      CL =  0.1685
      Cm = -0.0365     CD =  0.00981   =>   CDf =  0.00501    CDp =  0.00480

 Side 1  free  transition at x/c =  0.8231   69
 Side 2  free  transition at x/c =  0.9436   77

   4   rms: 0.1073E-01   max: -.7215E-01   D at   80  2
       a = -0.500      CL =  0.1639
      Cm = -0.0356     CD =  0.00982   =>   CDf =  0.00501    CDp =  0.00481

 Side 1  free  transition at x/c =  0.8231   69
 Side 2  free  transition at x/c =  0.9463   77

   5   rms: 0.1967E-03   max: -.2115E-02   D at   78  2
       a = -0.500      CL =  0.1639
      Cm = -0.0356     CD =  0.00983   =>   CDf =  0.00501    CDp =  0.00482

 Side 1  free  transition at x/c =  0.8231   69
 Side 2  free  transition at x/c =  0.9463   77

   6   rms: 0.1276E-05   max: -.7039E-05   D at   77  2
       a = -0.500      CL =  0.1639
      Cm = -0.0356     CD =  0.00983   =>   CDf =  0.00501    CDp =  0.00482
 plradd ia,ip,cpol            3           0  0.16466618    

 Point added to stored polar  1
 Point written to save file  NACA2212Pol                                     
 Dump file unspecified or not available
 Calculating wake trajectory ...
 Calculating source influence matrix ...

 Solving BL system ...

 Side 1  free  transition at x/c =  0.8231   69
 Side 2  free  transition at x/c =  0.9463   77

   1   rms: 0.1156E+00   max: -.3726E+00   T at   77  2
       a =  0.000      CL =  0.2484
      Cm = -0.0400     CD =  0.01005   =>   CDf =  0.00503    CDp =  0.00501

 Side 1  free  transition at x/c =  0.7736   67
 Side 2  free  transition at x/c =  0.9794   78

   2   rms: 0.3408E-01   max: -.4285E+00   D at   69  1
       a =  0.000      CL =  0.2631
      Cm = -0.0429     CD =  0.00996   =>   CDf =  0.00535    CDp =  0.00460

 Side 1  free  transition at x/c =  0.7857   68
 Side 2  free  transition at x/c =  0.9781   78

   3   rms: 0.1212E-01   max: 0.1537E+00   C at   68  1
       a =  0.000      CL =  0.2634
      Cm = -0.0431     CD =  0.00999   =>   CDf =  0.00526    CDp =  0.00473

 Side 1  free  transition at x/c =  0.7808   68
 Side 2  free  transition at x/c =  0.9783   78

   4   rms: 0.1505E-02   max: -.1640E-01   D at   72  1
       a =  0.000      CL =  0.2633
      Cm = -0.0431     CD =  0.01001   =>   CDf =  0.00531    CDp =  0.00470

 Side 1  free  transition at x/c =  0.7801   68
 Side 2  free  transition at x/c =  0.9783   78

   5   rms: 0.1883E-04   max: -.1989E-03   D at   68  1
       a =  0.000      CL =  0.2633
      Cm = -0.0431     CD =  0.01001   =>   CDf =  0.00532    CDp =  0.00469
 plradd ia,ip,cpol            4           0  0.15117338    

 Point added to stored polar  1
 Point written to save file  NACA2212Pol                                     
 Dump file unspecified or not available
 Calculating wake trajectory ...
 Calculating source influence matrix ...

 Solving BL system ...

 Side 1  free  transition at x/c =  0.7801   68
 Side 2  free  transition at x/c =  0.9783   78

   1   rms: 0.1375E+00   max: -.5466E+00   T at   78  2   RLX: 0.915
       a =  0.500      CL =  0.3593
      Cm = -0.0511     CD =  0.01014   =>   CDf =  0.00534    CDp =  0.00480

 Side 1  free  transition at x/c =  0.7350   66
 Side 2  free  transition at x/c =  0.9947   79

   2   rms: 0.2648E-01   max: -.2249E+00   D at   67  1
       a =  0.500      CL =  0.3681
      Cm = -0.0528     CD =  0.01003   =>   CDf =  0.00561    CDp =  0.00442

 Side 1  free  transition at x/c =  0.7245   65
 Side 2 forced transition at x/c =  1.0000   79

   3   rms: 0.1101E-01   max: -.8612E-01   D at   79  2
       a =  0.500      CL =  0.3613
      Cm = -0.0514     CD =  0.01005   =>   CDf =  0.00569    CDp =  0.00435

 Side 1  free  transition at x/c =  0.7260   65
 Side 2 forced transition at x/c =  1.0000   79

   4   rms: 0.3213E-03   max: 0.3997E-02   D at   83  2
       a =  0.500      CL =  0.3614
      Cm = -0.0515     CD =  0.01004   =>   CDf =  0.00568    CDp =  0.00437

 Side 1  free  transition at x/c =  0.7259   65
 Side 2 forced transition at x/c =  1.0000   79

   5   rms: 0.3190E-05   max: -.2563E-04   D at   86  2
       a =  0.500      CL =  0.3614
      Cm = -0.0515     CD =  0.01004   =>   CDf =  0.00568    CDp =  0.00437
 plradd ia,ip,cpol            5           0  0.15117338    

 Point added to stored polar  1
 Point written to save file  NACA2212Pol                                     
 Dump file unspecified or not available
 Calculating wake trajectory ...
 Calculating source influence matrix ...

 Solving BL system ...

 Side 1  free  transition at x/c =  0.7259   65
 Side 2 forced transition at x/c =  1.0000   79

   1   rms: 0.8426E-01   max: -.1789E+00   D at   68  2
       a =  1.000      CL =  0.4067
      Cm = -0.0501     CD =  0.00998   =>   CDf =  0.00569    CDp =  0.00429

 Side 1  free  transition at x/c =  0.6657   63
 Side 2 forced transition at x/c =  1.0000   78

   2   rms: 0.2347E-01   max: -.3341E+00   D at   64  1
       a =  1.000      CL =  0.4067
      Cm = -0.0497     CD =  0.01008   =>   CDf =  0.00614    CDp =  0.00394

 Side 1  free  transition at x/c =  0.6732   63
 Side 2 forced transition at x/c =  1.0000   78

   3   rms: 0.4055E-02   max: 0.5706E-01   C at   63  1
       a =  1.000      CL =  0.4070
      Cm = -0.0497     CD =  0.01007   =>   CDf =  0.00598    CDp =  0.00409

 Side 1  free  transition at x/c =  0.6706   63
 Side 2 forced transition at x/c =  1.0000   78

   4   rms: 0.1044E-03   max: -.1223E-02   C at   63  1
       a =  1.000      CL =  0.4070
      Cm = -0.0497     CD =  0.01007   =>   CDf =  0.00600    CDp =  0.00407

 Side 1  free  transition at x/c =  0.6706   63
 Side 2 forced transition at x/c =  1.0000   78

   5   rms: 0.1495E-05   max: -.1454E-04   D at    4  1
       a =  1.000      CL =  0.4070
      Cm = -0.0497     CD =  0.01007   =>   CDf =  0.00600    CDp =  0.00407
 plradd ia,ip,cpol            6           0  0.13793826    

 Point added to stored polar  1
 Point written to save file  NACA2212Pol                                     
 Dump file unspecified or not available
 Calculating wake trajectory ...
 Calculating source influence matrix ...

 Solving BL system ...

 Side 1  free  transition at x/c =  0.6706   63
 Side 2 forced transition at x/c =  1.0000   78

   1   rms: 0.8864E-01   max: 0.5372E+00   C at   63  1
       a =  1.500      CL =  0.4530
      Cm = -0.0480     CD =  0.01020   =>   CDf =  0.00601    CDp =  0.00419

 Side 1  free  transition at x/c =  0.6115   59
 Side 2 forced transition at x/c =  1.0000   78

   2   rms: 0.2441E-01   max: -.3520E+00   D at   61  1
       a =  1.500      CL =  0.4519
      Cm = -0.0477     CD =  0.01030   =>   CDf =  0.00644    CDp =  0.00386

 Side 1  free  transition at x/c =  0.6129   60
 Side 2 forced transition at x/c =  1.0000   78

   3   rms: 0.2729E-02   max: 0.3633E-01   D at   63  1
       a =  1.500      CL =  0.4522
      Cm = -0.0477     CD =  0.01027   =>   CDf =  0.00640    CDp =  0.00388

 Side 1  free  transition at x/c =  0.6118   59
 Side 2 forced transition at x/c =  1.0000   78

   4   rms: 0.1772E-03   max: -.1858E-02   D at   63  1
       a =  1.500      CL =  0.4522
      Cm = -0.0477     CD =  0.01027   =>   CDf =  0.00638    CDp =  0.00389

 Side 1  free  transition at x/c =  0.6116   59
 Side 2 forced transition at x/c =  1.0000   78

   5   rms: 0.7271E-06   max: -.4634E-05   C at   59  1
       a =  1.500      CL =  0.4522
      Cm = -0.0477     CD =  0.01027   =>   CDf =  0.00638    CDp =  0.00389
 plradd ia,ip,cpol            7           0  0.13793826    

 Point added to stored polar  1
 Point written to save file  NACA2212Pol                                     
 Dump file unspecified or not available
 Calculating wake trajectory ...
 Calculating source influence matrix ...

 Solving BL system ...

 Side 1  free  transition at x/c =  0.6116   59
 Side 2 forced transition at x/c =  1.0000   78

   1   rms: 0.8308E-01   max: -.1412E+00   D at   70  2
       a =  2.000      CL =  0.4977
      Cm = -0.0460     CD =  0.01040   =>   CDf =  0.00637    CDp =  0.00404

 Side 1  free  transition at x/c =  0.5480   57
 Side 2 forced transition at x/c =  1.0000   77

   2   rms: 0.2702E-01   max: -.4097E+00   D at   58  1
       a =  2.000      CL =  0.4959
      Cm = -0.0455     CD =  0.01062   =>   CDf =  0.00686    CDp =  0.00377

 Side 1  free  transition at x/c =  0.5532   57
 Side 2 forced transition at x/c =  1.0000   77

   3   rms: 0.6665E-02   max: 0.1040E+00   C at   57  1
       a =  2.000      CL =  0.4964
      Cm = -0.0456     CD =  0.01061   =>   CDf =  0.00669    CDp =  0.00392

 Side 1  free  transition at x/c =  0.5499   57
 Side 2 forced transition at x/c =  1.0000   77

   4   rms: 0.1425E-03   max: -.2123E-02   D at   59  1
       a =  2.000      CL =  0.4964
      Cm = -0.0456     CD =  0.01061   =>   CDf =  0.00673    CDp =  0.00388

 Side 1  free  transition at x/c =  0.5499   57
 Side 2 forced transition at x/c =  1.0000   77

   5   rms: 0.1099E-05   max: -.6964E-05   D at   59  1
       a =  2.000      CL =  0.4964
      Cm = -0.0456     CD =  0.01061   =>   CDf =  0.00673    CDp =  0.00388
 plradd ia,ip,cpol            8           0  0.12498793    

 Point added to stored polar  1
 Point written to save file  NACA2212Pol                                     
 Dump file unspecified or not available
 Calculating wake trajectory ...
 Calculating source influence matrix ...

 Solving BL system ...

 Side 1  free  transition at x/c =  0.5499   57
 Side 2 forced transition at x/c =  1.0000   77

   1   rms: 0.9804E-01   max: 0.8491E+00   C at   57  1
       a =  2.500      CL =  0.5397
      Cm = -0.0432     CD =  0.01114   =>   CDf =  0.00674    CDp =  0.00441

 Side 1  free  transition at x/c =  0.4970   54
 Side 2 forced transition at x/c =  1.0000   77

   2   rms: 0.2568E-01   max: 0.2837E+00   D at   56  1
       a =  2.500      CL =  0.5396
      Cm = -0.0432     CD =  0.01108   =>   CDf =  0.00712    CDp =  0.00396

 Side 1  free  transition at x/c =  0.4929   53
 Side 2 forced transition at x/c =  1.0000   77

   3   rms: 0.2671E-02   max: -.3427E-01   D at   56  1
       a =  2.500      CL =  0.5399
      Cm = -0.0433     CD =  0.01110   =>   CDf =  0.00710    CDp =  0.00400

 Side 1  free  transition at x/c =  0.4905   53
 Side 2 forced transition at x/c =  1.0000   77

   4   rms: 0.2668E-03   max: -.3623E-02   C at   53  1
       a =  2.500      CL =  0.5399
      Cm = -0.0433     CD =  0.01110   =>   CDf =  0.00710    CDp =  0.00400

 Side 1  free  transition at x/c =  0.4906   53
 Side 2 forced transition at x/c =  1.0000   77

   5   rms: 0.1306E-05   max: -.1115E-04   C at   53  1
       a =  2.500      CL =  0.5399
      Cm = -0.0433     CD =  0.01110   =>   CDf =  0.00710    CDp =  0.00400
 plradd ia,ip,cpol            9           0  0.12498793    

 Point added to stored polar  1
 Point written to save file  NACA2212Pol                                     
 Dump file unspecified or not available
 Calculating wake trajectory ...
 Calculating source influence matrix ...

 Solving BL system ...

 Side 1  free  transition at x/c =  0.4906   53
 Side 2 forced transition at x/c =  1.0000   77

   1   rms: 0.8958E-01   max: 0.5941E+00   C at   53  1
       a =  3.000      CL =  0.5838
      Cm = -0.0411     CD =  0.01159   =>   CDf =  0.00706    CDp =  0.00453

 Side 1  free  transition at x/c =  0.4422   51
 Side 2 forced transition at x/c =  1.0000   76

   2   rms: 0.2518E-01   max: -.3934E+00   D at   52  1
       a =  3.000      CL =  0.5831
      Cm = -0.0410     CD =  0.01176   =>   CDf =  0.00753    CDp =  0.00423

 Side 1  free  transition at x/c =  0.4424   51
 Side 2 forced transition at x/c =  1.0000   76

   3   rms: 0.3957E-02   max: 0.3893E-01   D at   54  1
       a =  3.000      CL =  0.5835
      Cm = -0.0410     CD =  0.01169   =>   CDf =  0.00742    CDp =  0.00426

 Side 1  free  transition at x/c =  0.4416   51
 Side 2 forced transition at x/c =  1.0000   76

   4   rms: 0.3941E-04   max: -.5805E-03   D at   54  1
       a =  3.000      CL =  0.5835
      Cm = -0.0410     CD =  0.01168   =>   CDf =  0.00743    CDp =  0.00425
 plradd ia,ip,cpol           10           0  0.11237679    

 Point added to stored polar  1
 Point written to save file  NACA2212Pol                                     
 Dump file unspecified or not available
 Calculating wake trajectory ...
 Calculating source influence matrix ...

[...]

   2   rms: 0.1741E-01   max: -.2031E+00   D at   47  1
       a =  6.500      CL =  0.9157
      Cm = -0.0304     CD =  0.01631   =>   CDf =  0.00807    CDp =  0.00824

 Side 1  free  transition at x/c =  0.3069   47
 Side 2 forced transition at x/c =  1.0000   72

   3   rms: 0.1399E-02   max: -.1318E-01   D at   47  1
       a =  6.500      CL =  0.9160
      Cm = -0.0305     CD =  0.01632   =>   CDf =  0.00806    CDp =  0.00826

 Side 1  free  transition at x/c =  0.3070   47
 Side 2 forced transition at x/c =  1.0000   72

   4   rms: 0.1493E-04   max: -.7855E-04   D at   49  1
       a =  6.500      CL =  0.9160
      Cm = -0.0305     CD =  0.01632   =>   CDf =  0.00806    CDp =  0.00826
 plradd ia,ip,cpol           16           0  1.18625173E-02

 Point added to stored polar  1
 Point written to save file  NACA2212Pol                                     
 Dump file unspecified or not available
 Calculating wake trajectory ...
 Calculating source influence matrix ...

 Solving BL system ...

 Side 1  free  transition at x/c =  0.3070   47
 Side 2 forced transition at x/c =  1.0000   72

   1   rms: 0.7810E-01   max: 0.3809E+00   T at   47  1
       a =  7.000      CL =  0.9654
      Cm = -0.0294     CD =  0.01702   =>   CDf =  0.00789    CDp =  0.00913

 Side 1  free  transition at x/c =  0.2944   47
 Side 2 forced transition at x/c =  1.0000   71

   2   rms: 0.1954E-01   max: -.1995E+00   D at   47  1
       a =  7.000      CL =  0.9645
      Cm = -0.0293     CD =  0.01706   =>   CDf =  0.00805    CDp =  0.00901

 Side 1  free  transition at x/c =  0.2938   47
 Side 2 forced transition at x/c =  1.0000   71

   3   rms: 0.9156E-03   max: 0.5827E-02   D at    4  2
       a =  7.000      CL =  0.9648
      Cm = -0.0293     CD =  0.01706   =>   CDf =  0.00799    CDp =  0.00907

 Side 1  free  transition at x/c =  0.2937   47
 Side 2 forced transition at x/c =  1.0000   71

   4   rms: 0.5245E-05   max: -.2909E-04   C at   71  2
       a =  7.000      CL =  0.9648
      Cm = -0.0293     CD =  0.01706   =>   CDf =  0.00800    CDp =  0.00907
 plradd ia,ip,cpol           17           0  9.48647037E-03

 Point added to stored polar  1
 Point written to save file  NACA2212Pol                                     
 Dump file unspecified or not available
 Calculating wake trajectory ...
 Calculating source influence matrix ...

 Solving BL system ...

 Side 1  free  transition at x/c =  0.2937   47
 Side 2 forced transition at x/c =  1.0000   71

   1   rms: 0.7710E-01   max: 0.3951E+00   T at   47  1
       a =  7.500      CL =  1.0130
      Cm = -0.0281     CD =  0.01766   =>   CDf =  0.00781    CDp =  0.00985

 Side 1  free  transition at x/c =  0.2788   47
 Side 2 forced transition at x/c =  1.0000   70

   2   rms: 0.2598E-01   max: -.2222E+00   D at   47  1
       a =  7.500      CL =  1.0124
      Cm = -0.0281     CD =  0.01774   =>   CDf =  0.00800    CDp =  0.00974

 Side 1  free  transition at x/c =  0.2796   47
 Side 2 forced transition at x/c =  1.0000   70

   3   rms: 0.1881E-02   max: 0.1606E-01   D at   48  1
       a =  7.500      CL =  1.0128
      Cm = -0.0281     CD =  0.01777   =>   CDf =  0.00793    CDp =  0.00984

 Side 1  free  transition at x/c =  0.2793   47
 Side 2 forced transition at x/c =  1.0000   70

   4   rms: 0.1988E-04   max: -.9759E-04   C at   70  2
       a =  7.500      CL =  1.0127
      Cm = -0.0281     CD =  0.01777   =>   CDf =  0.00793    CDp =  0.00984
 plradd ia,ip,cpol           18           0  7.42534874E-03

 Point added to stored polar  1
 Point written to save file  NACA2212Pol                                     
 Dump file unspecified or not available
 Calculating wake trajectory ...
 Calculating source influence matrix ...

 Solving BL system ...

 Side 1  free  transition at x/c =  0.2793   47
 Side 2 forced transition at x/c =  1.0000   70

   1   rms: 0.7667E-01   max: 0.4248E+00   T at   47  1
       a =  8.000      CL =  1.0593
      Cm = -0.0266     CD =  0.01829   =>   CDf =  0.00794    CDp =  0.01035

 Side 1  free  transition at x/c =  0.2629   46
 Side 2 forced transition at x/c =  1.0000   70

   2   rms: 0.2868E-01   max: -.2333E+00   D at   46  1
       a =  8.000      CL =  1.0592
      Cm = -0.0267     CD =  0.01841   =>   CDf =  0.00794    CDp =  0.01047

 Side 1  free  transition at x/c =  0.2643   46
 Side 2 forced transition at x/c =  1.0000   70

   3   rms: 0.1997E-02   max: 0.2055E-01   D at   47  1
       a =  8.000      CL =  1.0596
      Cm = -0.0267     CD =  0.01843   =>   CDf =  0.00785    CDp =  0.01058

 Side 1  free  transition at x/c =  0.2639   46
 Side 2 forced transition at x/c =  1.0000   70

   4   rms: 0.2613E-04   max: -.1439E-03   C at   70  2
       a =  8.000      CL =  1.0596
      Cm = -0.0267     CD =  0.01843   =>   CDf =  0.00786    CDp =  0.01058
 plradd ia,ip,cpol           19           0  5.64833777E-03

 Point added to stored polar  1
 Point written to save file  NACA2212Pol                                     
 Dump file unspecified or not available
 Calculating wake trajectory ...
 Calculating source influence matrix ...

 Solving BL system ...

 Side 1  free  transition at x/c =  0.2639   46
 Side 2 forced transition at x/c =  1.0000   70

   1   rms: 0.7640E-01   max: 0.4402E+00   T at   46  1
       a =  8.500      CL =  1.1048
      Cm = -0.0250     CD =  0.01891   =>   CDf =  0.00764    CDp =  0.01127

 Side 1  free  transition at x/c =  0.2466   46
 Side 2 forced transition at x/c =  1.0000   69

   2   rms: 0.3015E-01   max: -.2487E+00   D at   46  1
       a =  8.500      CL =  1.1045
      Cm = -0.0251     CD =  0.01903   =>   CDf =  0.00783    CDp =  0.01120

 Side 1  free  transition at x/c =  0.2484   46
 Side 2 forced transition at x/c =  1.0000   69

   3   rms: 0.2361E-02   max: 0.2138E-01   D at   47  1
       a =  8.500      CL =  1.1051
      Cm = -0.0252     CD =  0.01906   =>   CDf =  0.00773    CDp =  0.01133

 Side 1  free  transition at x/c =  0.2479   46
 Side 2 forced transition at x/c =  1.0000   69

   4   rms: 0.3462E-04   max: -.1792E-03   D at   46  1
       a =  8.500      CL =  1.1051
      Cm = -0.0252     CD =  0.01906   =>   CDf =  0.00774    CDp =  0.01132
 plradd ia,ip,cpol           20           0  4.13337955E-03

 Point added to stored polar  1
 Point written to save file  NACA2212Pol                                     
 Dump file unspecified or not available
 Calculating wake trajectory ...
 Calculating source influence matrix ...

 Solving BL system ...

 Side 1  free  transition at x/c =  0.2479   46
 Side 2 forced transition at x/c =  1.0000   69

   1   rms: 0.7642E-01   max: 0.4496E+00   T at   46  1
       a =  9.000      CL =  1.1489
      Cm = -0.0233     CD =  0.01951   =>   CDf =  0.00774    CDp =  0.01177

 Side 1  free  transition at x/c =  0.2294   45
 Side 2 forced transition at x/c =  1.0000   69

   2   rms: 0.3102E-01   max: -.2799E+00   D at   45  1
       a =  9.000      CL =  1.1480
      Cm = -0.0232     CD =  0.01959   =>   CDf =  0.00770    CDp =  0.01189

 Side 1  free  transition at x/c =  0.2314   45
 Side 2 forced transition at x/c =  1.0000   69

   3   rms: 0.2519E-02   max: 0.1908E-01   T at   45  1
       a =  9.000      CL =  1.1488
      Cm = -0.0234     CD =  0.01963   =>   CDf =  0.00758    CDp =  0.01205

 Side 1  free  transition at x/c =  0.2306   45
 Side 2 forced transition at x/c =  1.0000   69

   4   rms: 0.5928E-04   max: -.4866E-03   D at   45  1
       a =  9.000      CL =  1.1488
      Cm = -0.0234     CD =  0.01963   =>   CDf =  0.00759    CDp =  0.01203
 plradd ia,ip,cpol           21           0  4.13337955E-03

 Point added to stored polar  1
 Point written to save file  NACA2212Pol                                     
 Dump file unspecified or not available
 Calculating wake trajectory ...
 Calculating source influence matrix ...

 Solving BL system ...

 Side 1  free  transition at x/c =  0.2306   45
 Side 2 forced transition at x/c =  1.0000   69

   1   rms: 0.7742E-01   max: 0.4565E+00   T at   45  1
       a =  9.500      CL =  1.1912
      Cm = -0.0213     CD =  0.02007   =>   CDf =  0.00735    CDp =  0.01272

 Side 1  free  transition at x/c =  0.2109   45
 Side 2 forced transition at x/c =  1.0000   68

   2   rms: 0.3482E-01   max: -.3353E+00   D at   45  1
       a =  9.500      CL =  1.1890
      Cm = -0.0210     CD =  0.02009   =>   CDf =  0.00751    CDp =  0.01257

 Side 1  free  transition at x/c =  0.2123   45
 Side 2 forced transition at x/c =  1.0000   68

   3   rms: 0.3146E-02   max: -.3473E-01   D at   47  1
       a =  9.500      CL =  1.1904
      Cm = -0.0213     CD =  0.02014   =>   CDf =  0.00740    CDp =  0.01273

 Side 1  free  transition at x/c =  0.2114   45
 Side 2 forced transition at x/c =  1.0000   68

   4   rms: 0.1361E-03   max: -.1470E-02   D at   45  1
       a =  9.500      CL =  1.1904
      Cm = -0.0213     CD =  0.02014   =>   CDf =  0.00743    CDp =  0.01271

 Side 1  free  transition at x/c =  0.2114   45
 Side 2 forced transition at x/c =  1.0000   68

   5   rms: 0.3549E-05   max: 0.1328E-04   C at   68  2
       a =  9.500      CL =  1.1904
      Cm = -0.0213     CD =  0.02014   =>   CDf =  0.00743    CDp =  0.01271
 plradd ia,ip,cpol           22           0  2.86515453E-03

 Point added to stored polar  1
 Point written to save file  NACA2212Pol                                     
 Dump file unspecified or not available
 Calculating wake trajectory ...
 Calculating source influence matrix ...

 Solving BL system ...

 Side 1  free  transition at x/c =  0.2114   45
 Side 2 forced transition at x/c =  1.0000   68

   1   rms: 0.8206E-01   max: 0.4830E+00   T at   45  1
       a = 10.000      CL =  1.2299
      Cm = -0.0189     CD =  0.02065   =>   CDf =  0.00717    CDp =  0.01348

 MRCHDU: Convergence failed at  46  side 1    Res =  0.2406E+02
 MRCHDU: Convergence failed at  47  side 1    Res =  0.1566E+01
 MRCHDU: Convergence failed at  48  side 1    Res =  0.1550E+01
 MRCHDU: Convergence failed at  49  side 1    Res =  0.1710E+01
 MRCHDU: Convergence failed at  50  side 1    Res =  0.2308E+01
 MRCHDU: Convergence failed at  51  side 1    Res =  0.2574E+01
 MRCHDU: Convergence failed at  52  side 1    Res =  0.2866E+01
 MRCHDU: Convergence failed at  53  side 1    Res =  0.3213E+01
 MRCHDU: Convergence failed at  54  side 1    Res =  0.3655E+01
 MRCHDU: Convergence failed at  55  side 1    Res =  0.4244E+01
 MRCHDU: Convergence failed at  56  side 1    Res =  0.4884E+01
 MRCHDU: Convergence failed at  57  side 1    Res =  0.5665E+01
 MRCHDU: Convergence failed at  58  side 1    Res =  0.6635E+01
 MRCHDU: Convergence failed at  59  side 1    Res =  0.8040E+01
 MRCHDU: Convergence failed at  60  side 1    Res =  0.1001E+02
 MRCHDU: Convergence failed at  61  side 1    Res =  0.1293E+02
 MRCHDU: Convergence failed at  62  side 1    Res =  0.1792E+02
 MRCHDU: Convergence failed at  63  side 1    Res =  0.2813E+02
 MRCHDU: Convergence failed at  64  side 1    Res =  0.4799E+02
 MRCHDU: Convergence failed at  65  side 1    Res =  0.1086E+04
 MRCHDU: Convergence failed at  66  side 1    Res =  0.4423E+02
 MRCHDU: Convergence failed at  67  side 1    Res =  0.2563E+02
 MRCHDU: Convergence failed at  68  side 1    Res =  0.1840E+02
 MRCHDU: Convergence failed at  69  side 1    Res =  0.1313E+02
 MRCHDU: Convergence failed at  70  side 1    Res =  0.1115E+02
 MRCHDU: Convergence failed at  71  side 1    Res =  0.1242E+02
 MRCHDU: Convergence failed at  72  side 1    Res =  0.1375E+02
 MRCHDU: Convergence failed at  73  side 1    Res =  0.1473E+02
 MRCHDU: Convergence failed at  74  side 1    Res =  0.1660E+02
 MRCHDU: Convergence failed at  75  side 1    Res =  0.1363E+02
 MRCHDU: Convergence failed at  76  side 1    Res =  0.1505E+02
 MRCHDU: Convergence failed at  77  side 1    Res =  0.1650E+02
 MRCHDU: Convergence failed at  78  side 1    Res =  0.1994E+02
 MRCHDU: Convergence failed at  79  side 1    Res =  0.2732E+02
 MRCHDU: Convergence failed at  80  side 1    Res =  0.7435E+02
 MRCHDU: Convergence failed at  81  side 1    Res =  0.2753E+02
 MRCHDU: Convergence failed at  82  side 1    Res =  0.3023E+02
 MRCHDU: Convergence failed at  83  side 1    Res =  0.3560E+02
 MRCHDU: Convergence failed at  84  side 1    Res =  0.1283E+03
 MRCHDU: Convergence failed at  85  side 1    Res =  0.2272E+02
 MRCHDU: Convergence failed at  86  side 1    Res =  0.2112E+02
 MRCHDU: Convergence failed at  87  side 1    Res =  0.4011E+02
 MRCHDU: Convergence failed at  88  side 1    Res =  0.1098E+02
 MRCHDU: Convergence failed at  89  side 1    Res =  0.1309E+02
 MRCHDU: Convergence failed at  90  side 1    Res =  0.1866E+02
 MRCHDU: Convergence failed at  91  side 1    Res =  0.2393E+02
 MRCHDU: Convergence failed at  92  side 1    Res =  0.3322E+02
 MRCHDU: Convergence failed at  93  side 1    Res =  0.6093E+02
 MRCHDU: Convergence failed at  94  side 1    Res =  0.1834E+03
 MRCHDU: Convergence failed at  95  side 1    Res =  0.1030E+03
 Side 1  free  transition at x/c =  0.1916   44
 Side 2 forced transition at x/c =  1.0000   67

   2   rms: 0.8121E+00   max: 0.2820E+01   D at   69  2   RLX: 0.231
       a = 10.000      CL =  1.8906
      Cm = -0.3191     CD =  0.00731   =>   CDf =  0.00339    CDp =  0.00392

 Side 1  free  transition at x/c =  0.1871   44
 Side 2 forced transition at x/c =  1.0000   67

   3   rms: 0.3868E+00   max: 0.7621E+00   C at   67  2   RLX: 0.667
       a = 10.000      CL =  1.4682
      Cm = -0.1061     CD =  0.01345   =>   CDf =  0.01055    CDp =  0.00289

 Side 1  free  transition at x/c =  0.1779   43
 Side 2 forced transition at x/c =  1.0000   67

   4   rms: 0.1640E+00   max: 0.7694E+00   C at   67  2   RLX: 0.973
       a = 10.000      CL =  1.3526
      Cm = -0.0403     CD =  0.01777   =>   CDf =  0.00840    CDp =  0.00937

 MRCHDU: Convergence failed at  86  side 1    Res =  0.2008E+00
 MRCHDU: Convergence failed at  91  side 1    Res =  0.1151E+01
 MRCHDU: Convergence failed at  92  side 1    Res =  0.1472E+01
 MRCHDU: Convergence failed at  93  side 1    Res =  0.2081E+01
 MRCHDU: Convergence failed at  94  side 1    Res =  0.2895E+01
 MRCHDU: Convergence failed at  95  side 1    Res =  0.3803E+01
 Side 1  free  transition at x/c =  0.1503   41
 Side 2 forced transition at x/c =  1.0000   67

   5   rms: 0.1526E+00   max: -.8305E+00   C at   67  2   RLX: 0.602
       a = 10.000      CL =  1.2898
      Cm = -0.0338     CD =  0.01816   =>   CDf =  0.00748    CDp =  0.01068

 MRCHDU: Convergence failed at  44  side 1    Res =  0.1020E+01
 MRCHDU: Convergence failed at  45  side 1    Res =  0.2421E+01
 MRCHDU: Convergence failed at  46  side 1    Res =  0.4463E+01
 MRCHDU: Convergence failed at  47  side 1    Res =  0.6962E+01
 MRCHDU: Convergence failed at  48  side 1    Res =  0.9727E+01
 MRCHDU: Convergence failed at  49  side 1    Res =  0.1178E+02
 MRCHDU: Convergence failed at  50  side 1    Res =  0.1280E+02
 MRCHDU: Convergence failed at  51  side 1    Res =  0.1334E+02
 MRCHDU: Convergence failed at  52  side 1    Res =  0.1315E+02
 MRCHDU: Convergence failed at  53  side 1    Res =  0.1256E+02
 MRCHDU: Convergence failed at  54  side 1    Res =  0.1171E+02
 MRCHDU: Convergence failed at  55  side 1    Res =  0.1099E+02
 MRCHDU: Convergence failed at  56  side 1    Res =  0.1033E+02
 MRCHDU: Convergence failed at  57  side 1    Res =  0.9407E+01
 MRCHDU: Convergence failed at  58  side 1    Res =  0.8760E+01
 MRCHDU: Convergence failed at  59  side 1    Res =  0.8189E+01
 MRCHDU: Convergence failed at  60  side 1    Res =  0.7586E+01
 MRCHDU: Convergence failed at  61  side 1    Res =  0.7264E+01
 MRCHDU: Convergence failed at  62  side 1    Res =  0.8602E+01
 MRCHDU: Convergence failed at  63  side 1    Res =  0.9911E+01
 MRCHDU: Convergence failed at  64  side 1    Res =  0.1097E+02
 MRCHDU: Convergence failed at  65  side 1    Res =  0.1267E+02
 MRCHDU: Convergence failed at  66  side 1    Res =  0.1446E+02
 MRCHDU: Convergence failed at  67  side 1    Res =  0.1637E+02
 MRCHDU: Convergence failed at  68  side 1    Res =  0.1862E+02
 MRCHDU: Convergence failed at  69  side 1    Res =  0.2172E+02
 MRCHDU: Convergence failed at  70  side 1    Res =  0.2547E+02
 MRCHDU: Convergence failed at  71  side 1    Res =  0.1561E+02
 MRCHDU: Convergence failed at  72  side 1    Res =  0.1695E+02
 MRCHDU: Convergence failed at  73  side 1    Res =  0.2867E+02
 MRCHDU: Convergence failed at  74  side 1    Res =  0.2064E+02
 MRCHDU: Convergence failed at  75  side 1    Res =  0.1342E+03
 MRCHDU: Convergence failed at  76  side 1    Res =  0.1926E+04
 MRCHDU: Convergence failed at  77  side 1    Res =  0.1872E+03
 MRCHDU: Convergence failed at  78  side 1    Res =  0.8420E+02
 MRCHDU: Convergence failed at  79  side 1    Res =  0.5366E+02
 MRCHDU: Convergence failed at  80  side 1    Res =  0.4055E+02
 MRCHDU: Convergence failed at  81  side 1    Res =  0.3258E+02
 MRCHDU: Convergence failed at  82  side 1    Res =  0.2839E+02
 MRCHDU: Convergence failed at  83  side 1    Res =  0.2438E+02
 MRCHDU: Convergence failed at  84  side 1    Res =  0.2281E+02
 MRCHDU: Convergence failed at  85  side 1    Res =  0.2368E+02
 MRCHDU: Convergence failed at  86  side 1    Res =  0.2225E+02
 MRCHDU: Convergence failed at  87  side 1    Res =  0.2018E+02
 MRCHDU: Convergence failed at  88  side 1    Res =  0.2750E+02
 MRCHDU: Convergence failed at  89  side 1    Res =  0.3053E+02
 MRCHDU: Convergence failed at  90  side 1    Res =  0.3543E+04
 MRCHDU: Convergence failed at  91  side 1    Res =  0.6988E+03
 MRCHDU: Convergence failed at  92  side 1    Res =  0.3044E+03
 MRCHDU: Convergence failed at  93  side 1    Res =  0.3182E+02
 MRCHDU: Convergence failed at  94  side 1    Res =  0.1742E+02
 MRCHDU: Convergence failed at  95  side 1    Res =  0.1551E+02
 Side 1  free  transition at x/c =  0.1793   44
 Side 2 forced transition at x/c =  1.0000   67

   6   rms: 0.9106E+00   max: 0.2687E+01   D at   69  2   RLX: 0.378
       a = 10.000      CL =  1.9624
      Cm = -0.3193     CD =  0.00613   =>   CDf =  0.00321    CDp =  0.00291

 Side 1  free  transition at x/c =  0.1756   43
 Side 2 forced transition at x/c =  1.0000   67

   7   rms: 0.4308E+00   max: 0.9084E+00   C at   67  2   RLX: 0.662
       a = 10.000      CL =  1.5426
      Cm = -0.1245     CD =  0.01067   =>   CDf =  0.01165    CDp = -0.00098

 Side 1  free  transition at x/c =  0.1572   42
 Side 2 forced transition at x/c =  1.0000   67

   8   rms: 0.2103E+00   max: 0.4685E+00   D at   77  2
       a = 10.000      CL =  1.2529
      Cm = -0.0220     CD =  0.01848   =>   CDf =  0.00874    CDp =  0.00974

 Side 1  free  transition at x/c =  0.1827   44
 Side 2 forced transition at x/c =  1.0000   67

   9   rms: 0.2717E-01   max: 0.2534E+00   D at   44  1
       a = 10.000      CL =  1.2306
      Cm = -0.0190     CD =  0.02061   =>   CDf =  0.00723    CDp =  0.01338

 Side 1  free  transition at x/c =  0.1863   44
 Side 2 forced transition at x/c =  1.0000   67

  10   rms: 0.2361E-02   max: -.2295E-01   D at   45  1
       a = 10.000      CL =  1.2298
      Cm = -0.0189     CD =  0.02066   =>   CDf =  0.00724    CDp =  0.01342

 Side 1  free  transition at x/c =  0.1872   44
 Side 2 forced transition at x/c =  1.0000   67

  11   rms: 0.1053E-03   max: -.9474E-03   C at   44  1
       a = 10.000      CL =  1.2298
      Cm = -0.0189     CD =  0.02066   =>   CDf =  0.00724    CDp =  0.01343

 Side 1  free  transition at x/c =  0.1872   44
 Side 2 forced transition at x/c =  1.0000   67

  12   rms: 0.2436E-05   max: -.8679E-05   D at   90  1
       a = 10.000      CL =  1.2298
      Cm = -0.0189     CD =  0.02066   =>   CDf =  0.00724    CDp =  0.01343
 plradd ia,ip,cpol           23           0  2.86515453E-03

 Point added to stored polar  1
 Point written to save file  NACA2212Pol                                     
 Dump file unspecified or not available

.OPERva   c>  