
 ===================================================
  XFOIL Version 6.99
  Copyright (C) 2000   Mark Drela, Harold Youngren

  This software comes with ABSOLUTELY NO WARRANTY,
    subject to the GNU General Public License.

  Caveat computor
 ===================================================

 File  xfoil.def  not found

   QUIT    Exit program

  .OPER    Direct operating point(s)
  .MDES    Complex mapping design routine
  .QDES    Surface speed design routine
  .GDES    Geometry design routine

   SAVE f  Write airfoil to labeled coordinate file
   PSAV f  Write airfoil to plain coordinate file
   ISAV f  Write airfoil to ISES coordinate file
   MSAV f  Write airfoil to MSES coordinate file
   REVE    Reverse written-airfoil node ordering

   LOAD f  Read buffer airfoil from coordinate file
   NACA i  Set NACA 4,5-digit airfoil and buffer airfoil
   INTE    Set buffer airfoil by interpolating two airfoils
   NORM    Buffer airfoil normalization toggle
   XYCM rr Change CM reference location, currently  0.25000 0.00000

   BEND    Display structural properties of current airfoil

   PCOP    Set current-airfoil panel nodes directly from buffer airfoil points
   PANE    Set current-airfoil panel nodes ( 160 ) based on curvature
  .PPAR    Show/change paneling

  .PLOP    Plotting options

   WDEF f  Write  current-settings file
   RDEF f  Reread current-settings file
   NAME s  Specify new airfoil name
   NINC    Increment name version number

   Z       Zoom    | (available in all menus)
   U       Unzoom  | 

 XFOIL   c>   Max thickness =     0.200058  at x =   0.300
 Max camber    =     0.020000  at x =   0.101

 Buffer airfoil set using 331 points

 Blunt trailing edge.  Gap =  0.00420

 Paneling parameters used...
   Number of panel nodes       160
   Panel bunching parameter    1.000
   TE/LE panel density ratio   0.150
   Refined-area/LE panel density ratio    0.200
   Top    side refined area x/c limits  1.000 1.000
   Bottom side refined area x/c limits  1.000 1.000

 XFOIL   c>  
.OPERi   c>  
Enter Reynolds number   r>  
 M  =    0.0000
 Re =    200000

.OPERv   c>  
 Sonic Cp =   -269.02      Sonic Q/Qinf =    18.262


.OPERv   c>  
.OPERv   c>  
 Polar  1 newly created for accumulation
 Airfoil archived with polar: NACA 2120                                       

Enter  polar save filename  OR  <return> for no file   s>  
 New polar save file available

Enter  polar dump filename  OR  <return> for no file   s>  
 Polar dump file will NOT be written

 Polar accumulation enabled

.OPERva   c>   Calculating unit vorticity distributions ...
 Calculating wake trajectory ...
 Calculating source influence matrix ...

 Solving BL system ...

 Initializing BL ...
    side            1  ...
 MRCHUE: Inverse mode at  51     Hk =   4.026
 MRCHUE: Inverse mode at  52     Hk =   4.670
 MRCHUE: Inverse mode at  53     Hk =   5.300
 MRCHUE: Inverse mode at  54     Hk =   5.919
 MRCHUE: Inverse mode at  55     Hk =   6.531
 MRCHUE: Inverse mode at  56     Hk =   7.135
 MRCHUE: Inverse mode at  57     Hk =   7.734
 MRCHUE: Inverse mode at  58     Hk =   8.329
 MRCHUE: Inverse mode at  59     Hk =   6.539
 MRCHUE: Inverse mode at  60     Hk =   4.454
 MRCHUE: Inverse mode at  61     Hk =   3.060
 MRCHUE: Inverse mode at  82     Hk =   2.500
    side            2  ...
 MRCHUE: Inverse mode at  55     Hk =   4.159
 MRCHUE: Inverse mode at  56     Hk =   4.750
 MRCHUE: Inverse mode at  57     Hk =   5.327
 MRCHUE: Inverse mode at  58     Hk =   5.895
 MRCHUE: Inverse mode at  59     Hk =   6.454
 MRCHUE: Inverse mode at  60     Hk =   7.006
 MRCHUE: Inverse mode at  61     Hk =   7.552
 MRCHUE: Inverse mode at  62     Hk =   8.093
 MRCHUE: Inverse mode at  63     Hk =   8.629
 MRCHUE: Inverse mode at  64     Hk =   8.053
 MRCHUE: Inverse mode at  65     Hk =   5.837
 MRCHUE: Inverse mode at  66     Hk =   4.425
 MRCHUE: Inverse mode at  67     Hk =   3.388
 MRCHUE: Inverse mode at  80     Hk =   2.500

 Side 1  free  transition at x/c =  0.5351   59
 Side 2  free  transition at x/c =  0.6821   64

   1   rms: 0.2335E+00   max: -.1358E+01   T at   59  1   RLX: 0.368
       a =  0.000      CL =  0.1434
      Cm = -0.0103     CD =  0.01306   =>   CDf =  0.00772    CDp =  0.00534

 Side 1  free  transition at x/c =  0.5560   60
 Side 2  free  transition at x/c =  0.7062   65

   2   rms: 0.1575E+00   max: -.1129E+01   T at   60  1   RLX: 0.443
       a =  0.000      CL =  0.1259
      Cm = -0.0053     CD =  0.01135   =>   CDf =  0.00750    CDp =  0.00385

 Side 1  free  transition at x/c =  0.5798   61
 Side 2  free  transition at x/c =  0.7242   66
 idif Ue xi dudx           1  0.11189639      3.55708599E-03   31.457319    
 Uenew xinew           2  2.63887830E-02  8.38875771E-04

   3   rms: 0.1275E+00   max: -.9459E+00   T at   61  1   RLX: 0.529
       a =  0.000      CL =  0.0519
      Cm =  0.0108     CD =  0.01206   =>   CDf =  0.00717    CDp =  0.00489

 Side 1  free  transition at x/c =  0.6059   61
 Side 2  free  transition at x/c =  0.7329   67

   4   rms: 0.6022E-01   max: -.6090E+00   D at   81  2   RLX: 0.821
       a =  0.000      CL =  0.0918
      Cm =  0.0012     CD =  0.01264   =>   CDf =  0.00679    CDp =  0.00585

 Side 1  free  transition at x/c =  0.6188   62
 Side 2  free  transition at x/c =  0.7528   68

   5   rms: 0.4634E-01   max: -.4097E+00   D at   81  2
       a =  0.000      CL =  0.1420
      Cm = -0.0097     CD =  0.01292   =>   CDf =  0.00652    CDp =  0.00640

 Side 1  free  transition at x/c =  0.6210   63
 Side 2  free  transition at x/c =  0.7524   67

   6   rms: 0.2654E-01   max: -.1432E+00   D at   80  2
       a =  0.000      CL =  0.1765
      Cm = -0.0172     CD =  0.01305   =>   CDf =  0.00650    CDp =  0.00655

 Side 1  free  transition at x/c =  0.6166   63
 Side 2  free  transition at x/c =  0.7519   67

   7   rms: 0.2465E-02   max: -.2068E-01   D at   63  1
       a =  0.000      CL =  0.1792
      Cm = -0.0177     CD =  0.01307   =>   CDf =  0.00657    CDp =  0.00650

 Side 1  free  transition at x/c =  0.6167   63
 Side 2  free  transition at x/c =  0.7518   67

   8   rms: 0.2868E-04   max: -.1953E-03   D at   65  1
       a =  0.000      CL =  0.1793
      Cm = -0.0178     CD =  0.01307   =>   CDf =  0.00657    CDp =  0.00650
 plradd ia,ip,cpol            1           0  9.43268090E-02

 Point added to stored polar  1
 Point written to save file  NACA2120Pol                                     
 Dump file unspecified or not available
 Calculating wake trajectory ...
 Calculating source influence matrix ...

 Solving BL system ...

 Side 1  free  transition at x/c =  0.6167   63
 Side 2  free  transition at x/c =  0.7518   67

   1   rms: 0.1617E+00   max: -.8456E+00   D at   64  1   RLX: 0.591
       a =  1.000      CL =  0.2387
      Cm = -0.0155     CD =  0.01324   =>   CDf =  0.00657    CDp =  0.00667

 Side 1  free  transition at x/c =  0.5803   62
 Side 2  free  transition at x/c =  0.7971   68

   2   rms: 0.6238E-01   max: 0.3391E+00   T at   62  1
       a =  1.000      CL =  0.2683
      Cm = -0.0121     CD =  0.01328   =>   CDf =  0.00668    CDp =  0.00660

 Side 1  free  transition at x/c =  0.5521   62
 Side 2  free  transition at x/c =  0.8263   69

   3   rms: 0.2481E-01   max: -.2879E+00   D at   62  1
       a =  1.000      CL =  0.2733
      Cm = -0.0127     CD =  0.01328   =>   CDf =  0.00675    CDp =  0.00652

 Side 1  free  transition at x/c =  0.5553   62
 Side 2  free  transition at x/c =  0.8196   68

   4   rms: 0.8932E-02   max: 0.8306E-01   D at   69  2
       a =  1.000      CL =  0.2800
      Cm = -0.0138     CD =  0.01339   =>   CDf =  0.00665    CDp =  0.00674

 Side 1  free  transition at x/c =  0.5530   62
 Side 2  free  transition at x/c =  0.8130   68

   5   rms: 0.2032E-02   max: -.2103E-01   D at   69  2
       a =  1.000      CL =  0.2792
      Cm = -0.0137     CD =  0.01338   =>   CDf =  0.00672    CDp =  0.00667

 Side 1  free  transition at x/c =  0.5530   62
 Side 2  free  transition at x/c =  0.8141   68

   6   rms: 0.2578E-04   max: -.2911E-03   D at   71  2
       a =  1.000      CL =  0.2792
      Cm = -0.0137     CD =  0.01338   =>   CDf =  0.00671    CDp =  0.00668
 plradd ia,ip,cpol            2           0  9.43268090E-02

 Point added to stored polar  1
 Point written to save file  NACA2120Pol                                     
 Dump file unspecified or not available
 Calculating wake trajectory ...
 Calculating source influence matrix ...

 Solving BL system ...

 Side 1  free  transition at x/c =  0.5530   62
 Side 2  free  transition at x/c =  0.8141   68

   1   rms: 0.1536E+00   max: -.6933E+00   T at   68  2   RLX: 0.721
       a =  2.000      CL =  0.3522
      Cm = -0.0109     CD =  0.01384   =>   CDf =  0.00671    CDp =  0.00713

 Side 1  free  transition at x/c =  0.5172   61
 Side 2  free  transition at x/c =  0.8578   69

   2   rms: 0.5530E-01   max: 0.3307E+00   D at   69  2
       a =  2.000      CL =  0.3863
      Cm = -0.0111     CD =  0.01419   =>   CDf =  0.00681    CDp =  0.00738

 Side 1  free  transition at x/c =  0.4948   60
 Side 2  free  transition at x/c =  0.8664   69

   3   rms: 0.2199E-01   max: -.2052E+00   D at   71  2
       a =  2.000      CL =  0.3741
      Cm = -0.0089     CD =  0.01399   =>   CDf =  0.00698    CDp =  0.00701

 Side 1  free  transition at x/c =  0.4998   60
 Side 2  free  transition at x/c =  0.8806   70

   4   rms: 0.2248E-01   max: 0.2091E+00   C at   70  2
       a =  2.000      CL =  0.3724
      Cm = -0.0083     CD =  0.01396   =>   CDf =  0.00682    CDp =  0.00713

 Side 1  free  transition at x/c =  0.4991   60
 Side 2  free  transition at x/c =  0.8753   70

   5   rms: 0.8298E-02   max: -.6983E-01   D at   77  2
       a =  2.000      CL =  0.3799
      Cm = -0.0098     CD =  0.01407   =>   CDf =  0.00684    CDp =  0.00723

 Side 1  free  transition at x/c =  0.4980   60
 Side 2  free  transition at x/c =  0.8720   70

   6   rms: 0.7349E-03   max: -.7375E-02   D at   70  2
       a =  2.000      CL =  0.3808
      Cm = -0.0100     CD =  0.01408   =>   CDf =  0.00686    CDp =  0.00722

 Side 1  free  transition at x/c =  0.4979   60
 Side 2  free  transition at x/c =  0.8720   70

   7   rms: 0.2101E-05   max: 0.1635E-04   D at   71  2
       a =  2.000      CL =  0.3808
      Cm = -0.0100     CD =  0.01408   =>   CDf =  0.00686    CDp =  0.00722
 plradd ia,ip,cpol            3           0  8.69582444E-02

 Point added to stored polar  1
 Point written to save file  NACA2120Pol                                     
 Dump file unspecified or not available
 Calculating wake trajectory ...
 Calculating source influence matrix ...

 Solving BL system ...

 Side 1  free  transition at x/c =  0.4979   60
 Side 2  free  transition at x/c =  0.8720   70

   1   rms: 0.1643E+00   max: -.6478E+00   T at   70  2   RLX: 0.772
       a =  3.000      CL =  0.4718
      Cm = -0.0094     CD =  0.01483   =>   CDf =  0.00687    CDp =  0.00796

 Side 1  free  transition at x/c =  0.4518   59
 Side 2  free  transition at x/c =  0.8989   70

   2   rms: 0.4252E-01   max: -.3722E+00   T at   70  2
       a =  3.000      CL =  0.4811
      Cm = -0.0065     CD =  0.01516   =>   CDf =  0.00718    CDp =  0.00798

 Side 1  free  transition at x/c =  0.4415   59
 Side 2  free  transition at x/c =  0.9254   70

   3   rms: 0.2493E-01   max: 0.2005E+00   D at   71  2
       a =  3.000      CL =  0.4981
      Cm = -0.0098     CD =  0.01520   =>   CDf =  0.00719    CDp =  0.00801

 Side 1  free  transition at x/c =  0.4400   59
 Side 2  free  transition at x/c =  0.9160   70

   4   rms: 0.3720E-02   max: -.2700E-01   D at   72  2
       a =  3.000      CL =  0.4963
      Cm = -0.0094     CD =  0.01521   =>   CDf =  0.00715    CDp =  0.00807

 Side 1  free  transition at x/c =  0.4403   59
 Side 2  free  transition at x/c =  0.9170   70

   5   rms: 0.1781E-04   max: -.2708E-03   D at   70  2
       a =  3.000      CL =  0.4963
      Cm = -0.0094     CD =  0.01521   =>   CDf =  0.00715    CDp =  0.00806
 plradd ia,ip,cpol            4           0  8.69582444E-02

 Point added to stored polar  1
 Point written to save file  NACA2120Pol                                     
 Dump file unspecified or not available
 Calculating wake trajectory ...
 Calculating source influence matrix ...

 Solving BL system ...

 Side 1  free  transition at x/c =  0.4403   59
 Side 2  free  transition at x/c =  0.9170   70

   1   rms: 0.1683E+00   max: -.5203E+00   T at   70  2   RLX: 0.961
       a =  4.000      CL =  0.6301
      Cm = -0.0138     CD =  0.01622   =>   CDf =  0.00716    CDp =  0.00906

 Side 1  free  transition at x/c =  0.3791   57
 Side 2  free  transition at x/c =  0.9451   70

   2   rms: 0.1099E+00   max: 0.9034E+00   T at   70  2   RLX: 0.598
       a =  4.000      CL =  0.6916
      Cm = -0.0265     CD =  0.01704   =>   CDf =  0.00767    CDp =  0.00937

 Side 1  free  transition at x/c =  0.3673   58
 Side 2  free  transition at x/c =  0.9244   68
 idif Ue xi dudx           1  0.12098522      3.17203999E-03   38.141140    
 Uenew xinew           2  1.45951584E-02  3.82661819E-04

   3   rms: 0.1738E+00   max: -.1591E+01   T at   68  2   RLX: 0.314
       a =  4.000      CL =  0.6372
      Cm = -0.0162     CD =  0.01839   =>   CDf =  0.00760    CDp =  0.01079

 Side 1  free  transition at x/c =  0.3744   57
 Side 2  free  transition at x/c =  0.9535   71

   4   rms: 0.2856E-01   max: -.3398E+00   D at   58  1
       a =  4.000      CL =  0.6366
      Cm = -0.0151     CD =  0.01653   =>   CDf =  0.00754    CDp =  0.00898

 Side 1  free  transition at x/c =  0.3763   57
 Side 2  free  transition at x/c =  0.9508   71

   5   rms: 0.4415E-02   max: 0.4120E-01   C at   57  1
       a =  4.000      CL =  0.6392
      Cm = -0.0156     CD =  0.01657   =>   CDf =  0.00747    CDp =  0.00910

 Side 1  free  transition at x/c =  0.3743   57
 Side 2  free  transition at x/c =  0.9496   71

   6   rms: 0.2680E-03   max: -.2033E-02   D at   74  2
       a =  4.000      CL =  0.6391
      Cm = -0.0156     CD =  0.01657   =>   CDf =  0.00749    CDp =  0.00908

 Side 1  free  transition at x/c =  0.3744   57
 Side 2  free  transition at x/c =  0.9497   71

   7   rms: 0.2035E-05   max: 0.1026E-04   D at    4  2
       a =  4.000      CL =  0.6391
      Cm = -0.0156     CD =  0.01657   =>   CDf =  0.00749    CDp =  0.00908
 plradd ia,ip,cpol            5           0  8.69582444E-02

 Point added to stored polar  1
 Point written to save file  NACA2120Pol                                     
 Dump file unspecified or not available
 Calculating wake trajectory ...
 Calculating source influence matrix ...

 Solving BL system ...

 Side 1  free  transition at x/c =  0.3744   57
 Side 2  free  transition at x/c =  0.9497   71

   1   rms: 0.1966E+00   max: -.3467E+00   T at   71  2   RLX: 0.703
       a =  5.000      CL =  0.7668
      Cm = -0.0260     CD =  0.01759   =>   CDf =  0.00748    CDp =  0.01011

 Side 1  free  transition at x/c =  0.3246   56
 Side 2  free  transition at x/c =  0.9599   69

   2   rms: 0.7794E-01   max: -.9674E+00   T at   69  2   RLX: 0.517
       a =  5.000      CL =  0.7532
      Cm = -0.0201     CD =  0.01857   =>   CDf =  0.00794    CDp =  0.01063

 Side 1  free  transition at x/c =  0.3169   56
 Side 2  free  transition at x/c =  0.9840   71

   3   rms: 0.5531E-01   max: -.4913E+00   D at   57  1
       a =  5.000      CL =  0.7900
      Cm = -0.0248     CD =  0.01793   =>   CDf =  0.00783    CDp =  0.01009

 Side 1  free  transition at x/c =  0.3003   55
 Side 2  free  transition at x/c =  0.9785   71

   4   rms: 0.9528E-02   max: -.1604E+00   D at   57  1
       a =  5.000      CL =  0.7896
      Cm = -0.0248     CD =  0.01824   =>   CDf =  0.00797    CDp =  0.01027

 Side 1  free  transition at x/c =  0.2969   55
 Side 2  free  transition at x/c =  0.9782   71

   5   rms: 0.5276E-03   max: -.6898E-02   D at   57  1
       a =  5.000      CL =  0.7895
      Cm = -0.0248     CD =  0.01826   =>   CDf =  0.00797    CDp =  0.01029

 Side 1  free  transition at x/c =  0.2970   55
 Side 2  free  transition at x/c =  0.9782   71

   6   rms: 0.2972E-05   max: -.2510E-04   D at   71  2
       a =  5.000      CL =  0.7895
      Cm = -0.0248     CD =  0.01826   =>   CDf =  0.00797    CDp =  0.01029
 plradd ia,ip,cpol            6           0  8.00884441E-02

 Point added to stored polar  1
 Point written to save file  NACA2120Pol                                     
 Dump file unspecified or not available

.OPERva   c>   ^C   command not recognized.  Type a "?" for list

.OPERva   c>  